xflr5 v6.47

Plane Name
T1-10.0 m/s-Panel-Inviscid
QInf  =   10.000000 m/s
Alpha =   10.000000
Beta  =    0.000°
Phi   =    0.000°
Ctrl  =    0.000
CL    =    1.345901
Cy    =   -0.000000
Cd    =    0.055607     ICd   =    0.055607     PCd   =    0.000000
Cl   = 1.89236e-06
Cm   =    -1.73102
ICn   =   -0.000001     PCn   =   -0.000001 
XCP   =    8.611288     YCP   =   -0.000088     ZCP   =    1.398559  
XNP   =    0.000000
Bending = 194605.648008

Main Wing
  y-span        Chord      Ai         Cl        PCd          ICd        CmGeom    CmAirf@chord/4    XTrtop    XTrBot      XCP       BM
  -31.2615     2.9832    -9.396    0.435186    0.000000    0.072013   -2.424293    0.010266     0.0000    0.0000    0.2263    0.0000
  -31.0480     3.0281    -7.006    0.715992    0.000000    0.087959   -3.788249   -0.031669     0.0000    0.0000    0.2905    1.8767
  -30.6223     3.1176    -5.489    0.960532    0.000000    0.092234   -4.831372   -0.043526     0.0000    0.0000    0.2914   24.3133
  -29.9875     3.2511    -4.320    1.144845    0.000000    0.086368   -5.482744   -0.061933     0.0000    0.0000    0.3001   121.6714
  -29.1479     3.4276    -3.442    1.273313    0.000000    0.076446   -5.696988   -0.077245     0.0000    0.0000    0.3064   396.4988
  -28.1091     3.6459    -2.800    1.356508    0.000000    0.066178   -5.566931   -0.087455     0.0000    0.0000    0.3101   1006.4275
  -26.8783     3.9047    -2.366    1.406433    0.000000    0.057919   -5.212916   -0.093448     0.0000    0.0000    0.3119   2167.0262
  -25.4639     4.2020    -2.104    1.433158    0.000000    0.052435   -4.735723   -0.096713     0.0000    0.0000    0.3128   4152.1088
  -23.8756     4.5359    -1.972    1.443766    0.000000    0.049473   -4.205821   -0.098374     0.0000    0.0000    0.3134   7291.9451
  -22.1241     4.9041    -1.935    1.442812    0.000000    0.048460   -3.668145   -0.099129     0.0000    0.0000    0.3139   11968.8320
  -20.2216     5.3040    -1.963    1.433058    0.000000    0.048811   -3.149467   -0.099371     0.0000    0.0000    0.3145   18609.2123
  -18.1809     5.7330    -2.038    1.416112    0.000000    0.050056   -2.664814   -0.099324     0.0000    0.0000    0.3153   27671.6339
  -16.0160     6.1881    -2.146    1.392799    0.000000    0.051813   -2.221554   -0.099130     0.0000    0.0000    0.3163   39630.2089
  -13.7417     6.6662    -2.276    1.363382    0.000000    0.053746   -1.822500   -0.098901     0.0000    0.0000    0.3176   54953.5435
  -11.3735     7.1641    -2.418    1.327667    0.000000    0.055519   -1.467783   -0.098780     0.0000    0.0000    0.3194   74079.4817
   -8.9277     7.6782    -2.557    1.284975    0.000000    0.056687   -1.156186   -0.099045     0.0000    0.0000    0.3221   97386.3393
   -6.4208     8.2052    -2.667    1.233974    0.000000    0.056529   -0.886235   -0.100406     0.0000    0.0000    0.3263   125161.4300
   -3.8701     8.7414    -2.694    1.171806    0.000000    0.053577   -0.657658   -0.104780     0.0000    0.0000    0.3341   157567.5473
   -1.2930     9.2832    -2.471    1.081491    0.000000    0.041909   -0.474787   -0.118993     0.0000    0.0000    0.3529   194605.6480
    1.2930     9.2832    -2.471    1.081494    0.000000    0.041912   -0.474792   -0.118992     0.0000    0.0000    0.3529   194605.6421
    3.8701     8.7414    -2.694    1.171807    0.000000    0.053577   -0.657658   -0.104780     0.0000    0.0000    0.3341   157567.5387
    6.4208     8.2052    -2.667    1.233975    0.000000    0.056529   -0.886235   -0.100406     0.0000    0.0000    0.3263   125161.4205
    8.9277     7.6782    -2.557    1.284975    0.000000    0.056687   -1.156186   -0.099045     0.0000    0.0000    0.3221   97386.3299
   11.3735     7.1641    -2.418    1.327667    0.000000    0.055519   -1.467784   -0.098780     0.0000    0.0000    0.3194   74079.4729
   13.7417     6.6662    -2.276    1.363382    0.000000    0.053746   -1.822501   -0.098901     0.0000    0.0000    0.3176   54953.5356
   16.0160     6.1881    -2.146    1.392799    0.000000    0.051813   -2.221554   -0.099130     0.0000    0.0000    0.3163   39630.2021
   18.1809     5.7330    -2.038    1.416112    0.000000    0.050056   -2.664814   -0.099324     0.0000    0.0000    0.3153   27671.6280
   20.2216     5.3040    -1.963    1.433058    0.000000    0.048811   -3.149467   -0.099371     0.0000    0.0000    0.3145   18609.2074
   22.1241     4.9041    -1.935    1.442812    0.000000    0.048460   -3.668145   -0.099129     0.0000    0.0000    0.3139   11968.8281
   23.8756     4.5359    -1.972    1.443766    0.000000    0.049473   -4.205821   -0.098374     0.0000    0.0000    0.3134   7291.9421
   25.4639     4.2020    -2.104    1.433158    0.000000    0.052435   -4.735722   -0.096713     0.0000    0.0000    0.3128   4152.1067
   26.8783     3.9047    -2.366    1.406433    0.000000    0.057919   -5.212913   -0.093447     0.0000    0.0000    0.3119   2167.0248
   28.1091     3.6459    -2.800    1.356508    0.000000    0.066178   -5.566920   -0.087454     0.0000    0.0000    0.3101   1006.4268
   29.1479     3.4276    -3.442    1.273312    0.000000    0.076445   -5.696951   -0.077241     0.0000    0.0000    0.3064   396.4985
   29.9875     3.2511    -4.320    1.144844    0.000000    0.086367   -5.482590   -0.061926     0.0000    0.0000    0.3000   121.6714
   30.6223     3.1176    -5.489    0.960531    0.000000    0.092233   -4.830477   -0.043518     0.0000    0.0000    0.2914   24.3133
   31.0480     3.0281    -7.006    0.715992    0.000000    0.087959   -3.784654   -0.031689     0.0000    0.0000    0.2906    1.8767
   31.2615     2.9832    -9.396    0.435185    0.000000    0.072013   -2.418174    0.010247     0.0000    0.0000    0.2263    0.0000


Main Wing Cp Coefficients
 Panel     CtrlPt.x        CtrlPt.y        CtrlPt.z       Nx      Ny       Nz        Area       Cp
Main WingCp Coefficients
Strip 1
  13       1.758e+01      -3.115e+01       2.686e+00          -0.040          -0.107          -0.993       4.645e-03         -1.2212
  14       1.749e+01      -3.114e+01       2.700e+00          -0.194          -0.145          -0.970       1.394e-02         -1.2015
  15       1.732e+01      -3.114e+01       2.717e+00          -0.040          -0.105          -0.994       2.188e-02         -1.0781
  16       1.709e+01      -3.114e+01       2.704e+00           0.123          -0.058          -0.991       2.904e-02         -0.7947
  17       1.679e+01      -3.115e+01       2.653e+00           0.210          -0.029          -0.977       3.492e-02         -0.5170
  18       1.646e+01      -3.115e+01       2.586e+00           0.187          -0.036          -0.982       3.812e-02         -0.3723
  19       1.611e+01      -3.116e+01       2.538e+00           0.086          -0.071          -0.994       3.868e-02         -0.2953
  20       1.575e+01      -3.116e+01       2.520e+00           0.010          -0.099          -0.995       3.742e-02         -0.2225
  21       1.542e+01      -3.116e+01       2.526e+00          -0.045          -0.120          -0.992       3.417e-02         -0.1531
  22       1.512e+01      -3.116e+01       2.546e+00          -0.098          -0.140          -0.985       2.901e-02         -0.0647
  23       1.489e+01      -3.116e+01       2.578e+00          -0.178          -0.174          -0.969       2.232e-02          0.0946
  24       1.472e+01      -3.115e+01       2.622e+00          -0.374          -0.255          -0.892       1.499e-02          0.3834
  25       1.464e+01      -3.115e+01       2.687e+00          -0.806          -0.414          -0.422       1.016e-02          0.1147
  26       1.464e+01      -3.114e+01       2.763e+00          -0.806          -0.337           0.487       1.016e-02         -1.9547
  27       1.472e+01      -3.113e+01       2.827e+00          -0.375          -0.101           0.922       1.498e-02         -2.4025
  28       1.489e+01      -3.113e+01       2.872e+00          -0.177          -0.005           0.984       2.226e-02         -1.2525
  29       1.512e+01      -3.113e+01       2.903e+00          -0.098           0.031           0.995       2.892e-02         -0.8105
  30       1.542e+01      -3.113e+01       2.923e+00          -0.044           0.055           0.998       3.405e-02         -0.6484
  31       1.575e+01      -3.112e+01       2.931e+00          -0.002           0.073           0.997       3.728e-02         -0.5680
  32       1.611e+01      -3.113e+01       2.925e+00           0.035           0.088           0.995       3.842e-02         -0.5337
  33       1.646e+01      -3.113e+01       2.905e+00           0.078           0.104           0.992       3.741e-02         -0.5498
  34       1.679e+01      -3.113e+01       2.870e+00           0.131           0.122           0.984       3.434e-02         -0.6492
  35       1.709e+01      -3.113e+01       2.823e+00           0.189           0.140           0.972       2.935e-02         -0.8781
  36       1.732e+01      -3.114e+01       2.772e+00           0.241           0.154           0.958       2.257e-02         -1.1788
  37       1.749e+01      -3.114e+01       2.728e+00           0.281           0.164           0.946       1.427e-02         -1.3726
  38       1.758e+01      -3.114e+01       2.698e+00           0.483           0.208           0.851       5.361e-03         -1.1625
Strip 2
  39       1.752e+01      -3.093e+01       2.666e+00          -0.041          -0.108          -0.993       1.411e-02         -0.5885
  40       1.743e+01      -3.093e+01       2.679e+00          -0.194          -0.145          -0.970       4.236e-02         -0.4557
  41       1.727e+01      -3.093e+01       2.696e+00          -0.041          -0.106          -0.994       6.649e-02         -0.3457
  42       1.702e+01      -3.093e+01       2.684e+00           0.122          -0.058          -0.991       8.822e-02         -0.2378
  43       1.673e+01      -3.094e+01       2.633e+00           0.209          -0.029          -0.977       1.061e-01         -0.1809
  44       1.639e+01      -3.094e+01       2.565e+00           0.186          -0.036          -0.982       1.158e-01         -0.2072
  45       1.603e+01      -3.095e+01       2.516e+00           0.085          -0.072          -0.994       1.175e-01         -0.2120
  46       1.567e+01      -3.095e+01       2.498e+00           0.010          -0.099          -0.995       1.137e-01         -0.1501
  47       1.533e+01      -3.095e+01       2.504e+00          -0.046          -0.120          -0.992       1.038e-01         -0.0615
  48       1.503e+01      -3.095e+01       2.525e+00          -0.099          -0.141          -0.985       8.817e-02          0.0617
  49       1.479e+01      -3.094e+01       2.557e+00          -0.179          -0.174          -0.968       6.784e-02          0.2649
  50       1.462e+01      -3.094e+01       2.603e+00          -0.374          -0.255          -0.892       4.557e-02          0.5593
  51       1.454e+01      -3.093e+01       2.668e+00          -0.806          -0.414          -0.423       3.088e-02         -0.0728
  52       1.454e+01      -3.093e+01       2.745e+00          -0.806          -0.337           0.487       3.084e-02         -2.7604
  53       1.462e+01      -3.092e+01       2.811e+00          -0.374          -0.101           0.922       4.549e-02         -3.1324
  54       1.479e+01      -3.092e+01       2.856e+00          -0.176          -0.005           0.984       6.761e-02         -1.6293
  55       1.503e+01      -3.091e+01       2.888e+00          -0.097           0.032           0.995       8.786e-02         -1.0061
  56       1.533e+01      -3.091e+01       2.908e+00          -0.043           0.055           0.998       1.034e-01         -0.7471
  57       1.567e+01      -3.091e+01       2.915e+00          -0.001           0.073           0.997       1.133e-01         -0.6195
  58       1.603e+01      -3.091e+01       2.909e+00           0.036           0.088           0.995       1.167e-01         -0.5633
  59       1.639e+01      -3.091e+01       2.888e+00           0.079           0.104           0.991       1.137e-01         -0.5596
  60       1.673e+01      -3.092e+01       2.853e+00           0.132           0.122           0.984       1.044e-01         -0.5960
  61       1.702e+01      -3.092e+01       2.805e+00           0.190           0.140           0.972       8.920e-02         -0.6638
  62       1.727e+01      -3.093e+01       2.753e+00           0.242           0.154           0.958       6.860e-02         -0.7148
  63       1.743e+01      -3.093e+01       2.708e+00           0.281           0.164           0.946       4.337e-02         -0.7383
  64       1.752e+01      -3.093e+01       2.677e+00           0.483           0.208           0.850       1.630e-02         -0.4697
Strip 3
  65       1.741e+01      -3.051e+01       2.624e+00          -0.042          -0.108          -0.993       2.411e-02         -0.0707
  66       1.732e+01      -3.051e+01       2.638e+00          -0.195          -0.146          -0.970       7.239e-02          0.1240
  67       1.715e+01      -3.051e+01       2.656e+00          -0.042          -0.106          -0.993       1.136e-01          0.1969
  68       1.690e+01      -3.051e+01       2.644e+00           0.121          -0.058          -0.991       1.506e-01          0.1663
  69       1.659e+01      -3.051e+01       2.591e+00           0.208          -0.030          -0.978       1.811e-01          0.0736
  70       1.624e+01      -3.052e+01       2.522e+00           0.185          -0.037          -0.982       1.977e-01         -0.0480
  71       1.587e+01      -3.052e+01       2.472e+00           0.084          -0.072          -0.994       2.007e-01         -0.0907
  72       1.550e+01      -3.052e+01       2.454e+00           0.008          -0.100          -0.995       1.942e-01         -0.0265
  73       1.515e+01      -3.052e+01       2.461e+00          -0.047          -0.121          -0.992       1.774e-01          0.0902
  74       1.485e+01      -3.052e+01       2.483e+00          -0.100          -0.141          -0.985       1.507e-01          0.2536
  75       1.460e+01      -3.052e+01       2.516e+00          -0.180          -0.174          -0.968       1.159e-01          0.4845
  76       1.443e+01      -3.051e+01       2.563e+00          -0.375          -0.256          -0.891       7.792e-02          0.7218
  77       1.434e+01      -3.051e+01       2.631e+00          -0.806          -0.414          -0.423       5.280e-02         -0.2774
  78       1.434e+01      -3.050e+01       2.710e+00          -0.806          -0.337           0.486       5.261e-02         -3.4692
  79       1.443e+01      -3.050e+01       2.778e+00          -0.374          -0.101           0.922       7.762e-02         -3.7686
  80       1.460e+01      -3.049e+01       2.824e+00          -0.175          -0.004           0.985       1.154e-01         -1.9997
  81       1.485e+01      -3.049e+01       2.856e+00          -0.096           0.032           0.995       1.500e-01         -1.2500
  82       1.515e+01      -3.049e+01       2.877e+00          -0.042           0.056           0.998       1.766e-01         -0.9021
  83       1.550e+01      -3.049e+01       2.884e+00           0.000           0.074           0.997       1.935e-01         -0.7057
  84       1.587e+01      -3.049e+01       2.877e+00           0.037           0.089           0.995       1.994e-01         -0.5938
  85       1.624e+01      -3.049e+01       2.855e+00           0.080           0.105           0.991       1.942e-01         -0.5239
  86       1.659e+01      -3.049e+01       2.818e+00           0.133           0.123           0.983       1.783e-01         -0.4543
  87       1.690e+01      -3.050e+01       2.769e+00           0.191           0.140           0.972       1.524e-01         -0.3680
  88       1.715e+01      -3.050e+01       2.714e+00           0.243           0.154           0.958       1.173e-01         -0.2566
  89       1.732e+01      -3.051e+01       2.668e+00           0.282           0.164           0.945       7.412e-02         -0.1771
  90       1.741e+01      -3.051e+01       2.636e+00           0.484           0.208           0.850       2.786e-02          0.0993
Strip 4
  91       1.725e+01      -2.988e+01       2.562e+00          -0.044          -0.108          -0.993       3.496e-02          0.0375
  92       1.715e+01      -2.988e+01       2.577e+00          -0.197          -0.146          -0.969       1.050e-01          0.2530
  93       1.697e+01      -2.987e+01       2.596e+00          -0.044          -0.106          -0.993       1.647e-01          0.3340
  94       1.671e+01      -2.988e+01       2.584e+00           0.119          -0.059          -0.991       2.183e-01          0.2958
  95       1.639e+01      -2.988e+01       2.530e+00           0.206          -0.030          -0.978       2.624e-01          0.1880
  96       1.603e+01      -2.988e+01       2.458e+00           0.183          -0.037          -0.982       2.864e-01          0.0531
  97       1.564e+01      -2.989e+01       2.406e+00           0.082          -0.073          -0.994       2.909e-01          0.0070
  98       1.526e+01      -2.989e+01       2.389e+00           0.007          -0.100          -0.995       2.816e-01          0.0781
  99       1.489e+01      -2.989e+01       2.396e+00          -0.049          -0.121          -0.991       2.572e-01          0.2056
 100       1.457e+01      -2.989e+01       2.420e+00          -0.102          -0.142          -0.985       2.185e-01          0.3737
 101       1.432e+01      -2.989e+01       2.456e+00          -0.182          -0.175          -0.968       1.683e-01          0.5929
 102       1.414e+01      -2.988e+01       2.505e+00          -0.376          -0.256          -0.891       1.132e-01          0.7555
 103       1.404e+01      -2.988e+01       2.575e+00          -0.805          -0.414          -0.425       7.669e-02         -0.5317
 104       1.404e+01      -2.987e+01       2.658e+00          -0.807          -0.337           0.485       7.615e-02         -4.0501
 105       1.414e+01      -2.986e+01       2.728e+00          -0.373          -0.100           0.923       1.124e-01         -4.2508
 106       1.432e+01      -2.986e+01       2.776e+00          -0.173          -0.004           0.985       1.672e-01         -2.2661
 107       1.457e+01      -2.986e+01       2.809e+00          -0.094           0.033           0.995       2.174e-01         -1.4404
 108       1.489e+01      -2.986e+01       2.830e+00          -0.040           0.057           0.998       2.561e-01         -1.0521
 109       1.526e+01      -2.986e+01       2.837e+00           0.002           0.075           0.997       2.805e-01         -0.8186
 110       1.564e+01      -2.986e+01       2.829e+00           0.039           0.090           0.995       2.892e-01         -0.6698
 111       1.603e+01      -2.986e+01       2.805e+00           0.082           0.105           0.991       2.817e-01         -0.5636
 112       1.639e+01      -2.986e+01       2.766e+00           0.135           0.123           0.983       2.587e-01         -0.4571
 113       1.671e+01      -2.987e+01       2.714e+00           0.193           0.141           0.971       2.212e-01         -0.3328
 114       1.697e+01      -2.987e+01       2.657e+00           0.244           0.155           0.957       1.701e-01         -0.1874
 115       1.715e+01      -2.987e+01       2.608e+00           0.284           0.165           0.945       1.076e-01         -0.0837
 116       1.725e+01      -2.988e+01       2.575e+00           0.485           0.208           0.849       4.046e-02          0.1893
Strip 5
 117       1.703e+01      -2.904e+01       2.481e+00          -0.046          -0.109          -0.993       4.697e-02          0.0744
 118       1.693e+01      -2.904e+01       2.497e+00          -0.199          -0.146          -0.969       1.412e-01          0.3004
 119       1.674e+01      -2.904e+01       2.517e+00          -0.046          -0.107          -0.993       2.213e-01          0.3879
 120       1.647e+01      -2.904e+01       2.504e+00           0.117          -0.060          -0.991       2.931e-01          0.3522
 121       1.613e+01      -2.904e+01       2.448e+00           0.204          -0.031          -0.978       3.521e-01          0.2460
 122       1.575e+01      -2.905e+01       2.373e+00           0.181          -0.038          -0.983       3.844e-01          0.1150
 123       1.534e+01      -2.905e+01       2.320e+00           0.080          -0.074          -0.994       3.906e-01          0.0743
 124       1.493e+01      -2.905e+01       2.302e+00           0.004          -0.101          -0.995       3.782e-01          0.1489
 125       1.455e+01      -2.905e+01       2.311e+00          -0.052          -0.122          -0.991       3.456e-01          0.2768
 126       1.421e+01      -2.905e+01       2.337e+00          -0.104          -0.143          -0.984       2.937e-01          0.4407
 127       1.394e+01      -2.905e+01       2.375e+00          -0.184          -0.176          -0.967       2.262e-01          0.6479
 128       1.375e+01      -2.905e+01       2.427e+00          -0.377          -0.257          -0.890       1.523e-01          0.7535
 129       1.365e+01      -2.904e+01       2.502e+00          -0.805          -0.414          -0.426       1.032e-01         -0.7415
 130       1.365e+01      -2.903e+01       2.590e+00          -0.807          -0.338           0.484       1.021e-01         -4.4956
 131       1.375e+01      -2.903e+01       2.663e+00          -0.371          -0.099           0.923       1.507e-01         -4.6119
 132       1.394e+01      -2.903e+01       2.713e+00          -0.171          -0.003           0.985       2.244e-01         -2.4543
 133       1.421e+01      -2.902e+01       2.748e+00          -0.092           0.034           0.995       2.919e-01         -1.5724
 134       1.455e+01      -2.902e+01       2.769e+00          -0.038           0.058           0.998       3.439e-01         -1.1600
 135       1.493e+01      -2.902e+01       2.775e+00           0.004           0.076           0.997       3.768e-01         -0.9092
 136       1.534e+01      -2.902e+01       2.765e+00           0.041           0.090           0.995       3.885e-01         -0.7430
 137       1.575e+01      -2.902e+01       2.740e+00           0.084           0.106           0.991       3.785e-01         -0.6179
 138       1.613e+01      -2.903e+01       2.698e+00           0.137           0.124           0.983       3.477e-01         -0.4905
 139       1.647e+01      -2.903e+01       2.642e+00           0.195           0.141           0.971       2.973e-01         -0.3446
 140       1.674e+01      -2.903e+01       2.581e+00           0.246           0.155           0.957       2.287e-01         -0.1814
 141       1.693e+01      -2.904e+01       2.529e+00           0.286           0.165           0.944       1.446e-01         -0.0646
 142       1.703e+01      -2.904e+01       2.494e+00           0.486           0.209           0.849       5.443e-02          0.2085
Strip 6
 143       1.676e+01      -2.801e+01       2.380e+00          -0.049          -0.110          -0.993       6.038e-02          0.0911
 144       1.665e+01      -2.800e+01       2.397e+00          -0.201          -0.147          -0.968       1.816e-01          0.3232
 145       1.645e+01      -2.800e+01       2.419e+00          -0.049          -0.108          -0.993       2.845e-01          0.4147
 146       1.616e+01      -2.800e+01       2.406e+00           0.115          -0.060          -0.992       3.765e-01          0.3820
 147       1.580e+01      -2.801e+01       2.347e+00           0.202          -0.032          -0.979       4.521e-01          0.2792
 148       1.540e+01      -2.801e+01       2.269e+00           0.178          -0.039          -0.983       4.936e-01          0.1530
 149       1.496e+01      -2.802e+01       2.213e+00           0.078          -0.075          -0.994       5.018e-01          0.1168
 150       1.453e+01      -2.802e+01       2.195e+00           0.002          -0.102          -0.995       4.861e-01          0.1928
 151       1.412e+01      -2.802e+01       2.206e+00          -0.054          -0.123          -0.991       4.443e-01          0.3192
 152       1.376e+01      -2.802e+01       2.234e+00          -0.106          -0.144          -0.984       3.777e-01          0.4794
 153       1.347e+01      -2.801e+01       2.275e+00          -0.186          -0.177          -0.966       2.911e-01          0.6784
 154       1.327e+01      -2.801e+01       2.332e+00          -0.379          -0.257          -0.889       1.961e-01          0.7440
 155       1.317e+01      -2.801e+01       2.411e+00          -0.804          -0.413          -0.427       1.330e-01         -0.8899
 156       1.317e+01      -2.800e+01       2.504e+00          -0.808          -0.338           0.482       1.309e-01         -4.8112
 157       1.327e+01      -2.799e+01       2.582e+00          -0.370          -0.099           0.924       1.932e-01         -4.8682
 158       1.347e+01      -2.799e+01       2.635e+00          -0.169          -0.002           0.986       2.881e-01         -2.5812
 159       1.376e+01      -2.799e+01       2.671e+00          -0.089           0.035           0.995       3.750e-01         -1.6582
 160       1.412e+01      -2.799e+01       2.693e+00          -0.035           0.059           0.998       4.419e-01         -1.2292
 161       1.453e+01      -2.799e+01       2.698e+00           0.007           0.077           0.997       4.843e-01         -0.9682
 162       1.496e+01      -2.799e+01       2.687e+00           0.044           0.091           0.995       4.995e-01         -0.7931
 163       1.540e+01      -2.799e+01       2.659e+00           0.086           0.107           0.991       4.867e-01         -0.6580
 164       1.580e+01      -2.799e+01       2.613e+00           0.139           0.125           0.982       4.471e-01         -0.5186
 165       1.616e+01      -2.799e+01       2.552e+00           0.197           0.142           0.970       3.824e-01         -0.3600
 166       1.645e+01      -2.800e+01       2.487e+00           0.248           0.156           0.956       2.943e-01         -0.1862
 167       1.665e+01      -2.800e+01       2.432e+00           0.288           0.166           0.943       1.861e-01         -0.0610
 168       1.676e+01      -2.800e+01       2.393e+00           0.487           0.209           0.848       7.008e-02          0.2131
Strip 7
 169       1.644e+01      -2.678e+01       2.260e+00          -0.051          -0.110          -0.993       7.538e-02          0.1000
 170       1.633e+01      -2.678e+01       2.279e+00          -0.204          -0.148          -0.968       2.269e-01          0.3357
 171       1.611e+01      -2.678e+01       2.303e+00          -0.052          -0.108          -0.993       3.552e-01          0.4295
 172       1.580e+01      -2.678e+01       2.290e+00           0.112          -0.061          -0.992       4.697e-01          0.3989
 173       1.542e+01      -2.678e+01       2.228e+00           0.200          -0.033          -0.979       5.638e-01          0.2986
 174       1.498e+01      -2.679e+01       2.145e+00           0.176          -0.040          -0.984       6.156e-01          0.1756
 175       1.452e+01      -2.679e+01       2.086e+00           0.075          -0.075          -0.994       6.261e-01          0.1421
 176       1.405e+01      -2.679e+01       2.069e+00          -0.001          -0.103          -0.995       6.067e-01          0.2186
 177       1.362e+01      -2.679e+01       2.081e+00          -0.057          -0.124          -0.991       5.548e-01          0.3439
 178       1.323e+01      -2.679e+01       2.112e+00          -0.109          -0.145          -0.983       4.718e-01          0.5017
 179       1.292e+01      -2.679e+01       2.157e+00          -0.188          -0.178          -0.966       3.637e-01          0.6954
 180       1.271e+01      -2.678e+01       2.218e+00          -0.380          -0.258          -0.888       2.453e-01          0.7363
 181       1.259e+01      -2.678e+01       2.303e+00          -0.803          -0.413          -0.429       1.663e-01         -0.9792
 182       1.259e+01      -2.677e+01       2.404e+00          -0.809          -0.339           0.481       1.630e-01         -5.0130
 183       1.271e+01      -2.677e+01       2.487e+00          -0.368          -0.098           0.925       2.407e-01         -5.0365
 184       1.292e+01      -2.677e+01       2.543e+00          -0.166          -0.001           0.986       3.593e-01         -2.6606
 185       1.323e+01      -2.676e+01       2.580e+00          -0.087           0.036           0.996       4.678e-01         -1.7102
 186       1.362e+01      -2.676e+01       2.603e+00          -0.033           0.060           0.998       5.515e-01         -1.2702
 187       1.405e+01      -2.676e+01       2.607e+00           0.009           0.078           0.997       6.045e-01         -1.0029
 188       1.452e+01      -2.676e+01       2.594e+00           0.046           0.092           0.995       6.236e-01         -0.8227
 189       1.498e+01      -2.676e+01       2.563e+00           0.089           0.108           0.990       6.078e-01         -0.6820
 190       1.542e+01      -2.677e+01       2.513e+00           0.142           0.125           0.982       5.585e-01         -0.5358
 191       1.580e+01      -2.677e+01       2.447e+00           0.199           0.142           0.970       4.778e-01         -0.3701
 192       1.611e+01      -2.677e+01       2.376e+00           0.251           0.156           0.955       3.678e-01         -0.1904
 193       1.633e+01      -2.678e+01       2.316e+00           0.290           0.166           0.943       2.326e-01         -0.0600
 194       1.644e+01      -2.678e+01       2.274e+00           0.488           0.209           0.847       8.764e-02          0.2148
Strip 8
 195       1.607e+01      -2.537e+01       2.122e+00          -0.054          -0.111          -0.992       9.211e-02          0.1049
 196       1.595e+01      -2.537e+01       2.143e+00          -0.206          -0.148          -0.967       2.774e-01          0.3429
 197       1.572e+01      -2.537e+01       2.169e+00          -0.054          -0.109          -0.993       4.340e-01          0.4381
 198       1.539e+01      -2.537e+01       2.156e+00           0.110          -0.062          -0.992       5.735e-01          0.4087
 199       1.497e+01      -2.537e+01       2.090e+00           0.197          -0.033          -0.980       6.881e-01          0.3097
 200       1.450e+01      -2.538e+01       2.002e+00           0.174          -0.041          -0.984       7.513e-01          0.1884
 201       1.400e+01      -2.538e+01       1.940e+00           0.073          -0.076          -0.994       7.645e-01          0.1563
 202       1.351e+01      -2.538e+01       1.923e+00          -0.003          -0.104          -0.995       7.412e-01          0.2330
 203       1.304e+01      -2.538e+01       1.937e+00          -0.059          -0.125          -0.990       6.780e-01          0.3575
 204       1.262e+01      -2.538e+01       1.972e+00          -0.111          -0.146          -0.983       5.767e-01          0.5138
 205       1.229e+01      -2.538e+01       2.021e+00          -0.191          -0.179          -0.965       4.448e-01          0.7043
 206       1.205e+01      -2.537e+01       2.087e+00          -0.382          -0.258          -0.887       3.003e-01          0.7329
 207       1.193e+01      -2.537e+01       2.180e+00          -0.803          -0.413          -0.430       2.037e-01         -1.0181
 208       1.193e+01      -2.536e+01       2.288e+00          -0.809          -0.339           0.479       1.987e-01         -5.1204
 209       1.205e+01      -2.536e+01       2.377e+00          -0.366          -0.097           0.925       2.934e-01         -5.1336
 210       1.229e+01      -2.536e+01       2.436e+00          -0.164           0.001           0.986       4.385e-01         -2.7037
 211       1.262e+01      -2.535e+01       2.476e+00          -0.084           0.037           0.996       5.712e-01         -1.7376
 212       1.304e+01      -2.535e+01       2.499e+00          -0.030           0.061           0.998       6.736e-01         -1.2916
 213       1.351e+01      -2.535e+01       2.503e+00           0.012           0.079           0.997       7.386e-01         -1.0209
 214       1.400e+01      -2.535e+01       2.488e+00           0.049           0.093           0.994       7.620e-01         -0.8379
 215       1.450e+01      -2.535e+01       2.453e+00           0.091           0.109           0.990       7.428e-01         -0.6942
 216       1.497e+01      -2.536e+01       2.397e+00           0.144           0.126           0.981       6.827e-01         -0.5444
 217       1.539e+01      -2.536e+01       2.325e+00           0.202           0.143           0.969       5.842e-01         -0.3749
 218       1.572e+01      -2.536e+01       2.248e+00           0.253           0.157           0.955       4.498e-01         -0.1921
 219       1.595e+01      -2.537e+01       2.183e+00           0.292           0.167           0.942       2.845e-01         -0.0590
 220       1.607e+01      -2.537e+01       2.138e+00           0.490           0.209           0.846       1.073e-01          0.2159
Strip 9
 221       1.566e+01      -2.379e+01       1.967e+00          -0.056          -0.112          -0.992       1.106e-01          0.1078
 222       1.553e+01      -2.379e+01       1.990e+00          -0.208          -0.149          -0.967       3.334e-01          0.3474
 223       1.528e+01      -2.379e+01       2.020e+00          -0.057          -0.110          -0.992       5.212e-01          0.4432
 224       1.492e+01      -2.379e+01       2.006e+00           0.107          -0.063          -0.992       6.882e-01          0.4144
 225       1.447e+01      -2.379e+01       1.936e+00           0.195          -0.034          -0.980       8.254e-01          0.3160
 226       1.397e+01      -2.379e+01       1.842e+00           0.171          -0.041          -0.984       9.013e-01          0.1952
 227       1.343e+01      -2.380e+01       1.777e+00           0.070          -0.077          -0.995       9.176e-01          0.1635
 228       1.289e+01      -2.380e+01       1.759e+00          -0.006          -0.105          -0.994       8.900e-01          0.2400
 229       1.238e+01      -2.380e+01       1.776e+00          -0.062          -0.126          -0.990       8.144e-01          0.3638
 230       1.194e+01      -2.380e+01       1.814e+00          -0.114          -0.147          -0.983       6.929e-01          0.5190
 231       1.158e+01      -2.379e+01       1.869e+00          -0.193          -0.180          -0.965       5.347e-01          0.7078
 232       1.132e+01      -2.379e+01       1.941e+00          -0.383          -0.259          -0.887       3.614e-01          0.7341
 233       1.119e+01      -2.379e+01       2.041e+00          -0.802          -0.413          -0.432       2.451e-01         -1.0167
 234       1.119e+01      -2.378e+01       2.157e+00          -0.810          -0.340           0.478       2.380e-01         -5.1521
 235       1.132e+01      -2.378e+01       2.253e+00          -0.365          -0.096           0.926       3.516e-01         -5.1736
 236       1.158e+01      -2.377e+01       2.317e+00          -0.162           0.002           0.987       5.260e-01         -2.7188
 237       1.194e+01      -2.377e+01       2.359e+00          -0.082           0.038           0.996       6.855e-01         -1.7471
 238       1.238e+01      -2.377e+01       2.383e+00          -0.028           0.062           0.998       8.086e-01         -1.2991
 239       1.289e+01      -2.377e+01       2.386e+00           0.014           0.079           0.997       8.868e-01         -1.0274
 240       1.343e+01      -2.377e+01       2.368e+00           0.051           0.094           0.994       9.151e-01         -0.8436
 241       1.397e+01      -2.377e+01       2.329e+00           0.094           0.109           0.990       8.922e-01         -0.6986
 242       1.447e+01      -2.378e+01       2.267e+00           0.147           0.127           0.981       8.203e-01         -0.5471
 243       1.492e+01      -2.378e+01       2.189e+00           0.204           0.144           0.968       7.021e-01         -0.3760
 244       1.528e+01      -2.378e+01       2.105e+00           0.255           0.157           0.954       5.406e-01         -0.1919
 245       1.553e+01      -2.378e+01       2.033e+00           0.294           0.167           0.941       3.420e-01         -0.0576
 246       1.566e+01      -2.379e+01       1.984e+00           0.491           0.210           0.846       1.290e-01          0.2171
Strip 10
 247       1.521e+01      -2.204e+01       1.797e+00          -0.058          -0.112          -0.992       1.309e-01          0.1092
 248       1.507e+01      -2.204e+01       1.822e+00          -0.210          -0.149          -0.966       3.947e-01          0.3501
 249       1.480e+01      -2.204e+01       1.854e+00          -0.059          -0.110          -0.992       6.166e-01          0.4463
 250       1.441e+01      -2.204e+01       1.841e+00           0.105          -0.063          -0.992       8.137e-01          0.4178
 251       1.393e+01      -2.204e+01       1.766e+00           0.193          -0.035          -0.981       9.755e-01          0.3193
 252       1.338e+01      -2.205e+01       1.666e+00           0.169          -0.042          -0.985       1.065e+00          0.1981
 253       1.279e+01      -2.205e+01       1.596e+00           0.068          -0.078          -0.995       1.085e+00          0.1660
 254       1.221e+01      -2.205e+01       1.579e+00          -0.008          -0.106          -0.994       1.053e+00          0.2420
 255       1.166e+01      -2.205e+01       1.598e+00          -0.064          -0.127          -0.990       9.636e-01          0.3651
 256       1.118e+01      -2.205e+01       1.641e+00          -0.116          -0.148          -0.982       8.201e-01          0.5192
 257       1.079e+01      -2.205e+01       1.700e+00          -0.195          -0.181          -0.964       6.332e-01          0.7076
 258       1.052e+01      -2.205e+01       1.779e+00          -0.384          -0.259          -0.886       4.283e-01          0.7392
 259       1.038e+01      -2.204e+01       1.888e+00          -0.801          -0.413          -0.433       2.905e-01         -0.9836
 260       1.038e+01      -2.204e+01       2.014e+00          -0.811          -0.340           0.477       2.809e-01         -5.1221
 261       1.052e+01      -2.203e+01       2.117e+00          -0.363          -0.096           0.927       4.151e-01         -5.1672
 262       1.079e+01      -2.203e+01       2.186e+00          -0.160           0.003           0.987       6.216e-01         -2.7125
 263       1.118e+01      -2.203e+01       2.230e+00          -0.079           0.039           0.996       8.105e-01         -1.7430
 264       1.166e+01      -2.203e+01       2.255e+00          -0.025           0.063           0.998       9.563e-01         -1.2965
 265       1.221e+01      -2.203e+01       2.256e+00           0.017           0.080           0.997       1.049e+00         -1.0259
 266       1.279e+01      -2.203e+01       2.236e+00           0.054           0.095           0.994       1.083e+00         -0.8427
 267       1.338e+01      -2.203e+01       2.192e+00           0.096           0.110           0.989       1.056e+00         -0.6978
 268       1.393e+01      -2.203e+01       2.125e+00           0.149           0.127           0.981       9.709e-01         -0.5460
 269       1.441e+01      -2.203e+01       2.038e+00           0.206           0.144           0.968       8.312e-01         -0.3747
 270       1.480e+01      -2.204e+01       1.946e+00           0.257           0.158           0.953       6.401e-01         -0.1904
 271       1.507e+01      -2.204e+01       1.869e+00           0.296           0.167           0.940       4.050e-01         -0.0560
 272       1.521e+01      -2.204e+01       1.815e+00           0.492           0.210           0.845       1.529e-01          0.2180
Strip 11
 273       1.472e+01      -2.015e+01       1.612e+00          -0.061          -0.113          -0.992       1.528e-01          0.1100
 274       1.457e+01      -2.015e+01       1.639e+00          -0.212          -0.150          -0.966       4.610e-01          0.3518
 275       1.427e+01      -2.015e+01       1.675e+00          -0.061          -0.111          -0.992       7.199e-01          0.4482
 276       1.385e+01      -2.015e+01       1.661e+00           0.103          -0.064          -0.993       9.493e-01          0.4197
 277       1.333e+01      -2.015e+01       1.582e+00           0.191          -0.035          -0.981       1.138e+00          0.3207
 278       1.273e+01      -2.015e+01       1.474e+00           0.167          -0.043          -0.985       1.243e+00          0.1984
 279       1.210e+01      -2.016e+01       1.400e+00           0.066          -0.079          -0.995       1.266e+00          0.1652
 280       1.147e+01      -2.016e+01       1.383e+00          -0.010          -0.107          -0.994       1.229e+00          0.2403
 281       1.088e+01      -2.016e+01       1.405e+00          -0.066          -0.128          -0.990       1.125e+00          0.3625
 282       1.036e+01      -2.015e+01       1.452e+00          -0.118          -0.149          -0.982       9.578e-01          0.5158
 283       9.939e+00      -2.015e+01       1.518e+00          -0.197          -0.181          -0.963       7.398e-01          0.7044
 284       9.644e+00      -2.015e+01       1.604e+00          -0.386          -0.260          -0.885       5.008e-01          0.7472
 285       9.492e+00      -2.015e+01       1.722e+00          -0.801          -0.413          -0.434       3.398e-01         -0.9253
 286       9.492e+00      -2.014e+01       1.858e+00          -0.811          -0.340           0.475       3.273e-01         -5.0414
 287       9.644e+00      -2.014e+01       1.970e+00          -0.362          -0.095           0.927       4.836e-01         -5.1220
 288       9.939e+00      -2.014e+01       2.043e+00          -0.158           0.004           0.988       7.249e-01         -2.6881
 289       1.036e+01      -2.013e+01       2.090e+00          -0.077           0.040           0.996       9.456e-01         -1.7281
 290       1.088e+01      -2.013e+01       2.115e+00          -0.023           0.064           0.998       1.116e+00         -1.2863
 291       1.147e+01      -2.013e+01       2.116e+00           0.019           0.081           0.997       1.224e+00         -1.0186
 292       1.210e+01      -2.013e+01       2.092e+00           0.056           0.096           0.994       1.264e+00         -0.8371
 293       1.273e+01      -2.013e+01       2.043e+00           0.098           0.111           0.989       1.233e+00         -0.6934
 294       1.333e+01      -2.014e+01       1.969e+00           0.151           0.128           0.980       1.134e+00         -0.5424
 295       1.385e+01      -2.014e+01       1.875e+00           0.208           0.145           0.967       9.710e-01         -0.3717
 296       1.427e+01      -2.014e+01       1.774e+00           0.259           0.158           0.953       7.479e-01         -0.1880
 297       1.457e+01      -2.014e+01       1.690e+00           0.297           0.168           0.940       4.732e-01         -0.0542
 298       1.472e+01      -2.015e+01       1.632e+00           0.493           0.210           0.844       1.787e-01          0.2187
Strip 12
 299       1.419e+01      -1.811e+01       1.413e+00          -0.063          -0.113          -0.992       1.762e-01          0.1100
 300       1.402e+01      -1.811e+01       1.443e+00          -0.214          -0.150          -0.965       5.318e-01          0.3529
 301       1.371e+01      -1.811e+01       1.482e+00          -0.063          -0.111          -0.992       8.300e-01          0.4494
 302       1.325e+01      -1.811e+01       1.468e+00           0.101          -0.064          -0.993       1.094e+00          0.4206
 303       1.269e+01      -1.812e+01       1.383e+00           0.189          -0.036          -0.981       1.311e+00          0.3207
 304       1.205e+01      -1.812e+01       1.268e+00           0.165          -0.044          -0.985       1.431e+00          0.1966
 305       1.137e+01      -1.812e+01       1.190e+00           0.064          -0.080          -0.995       1.459e+00          0.1618
 306       1.068e+01      -1.812e+01       1.172e+00          -0.012          -0.108          -0.994       1.417e+00          0.2357
 307       1.004e+01      -1.812e+01       1.198e+00          -0.068          -0.129          -0.989       1.297e+00          0.3568
 308       9.479e+00      -1.812e+01       1.250e+00          -0.120          -0.149          -0.981       1.105e+00          0.5092
 309       9.024e+00      -1.812e+01       1.322e+00          -0.199          -0.182          -0.963       8.536e-01          0.6986
 310       8.705e+00      -1.812e+01       1.415e+00          -0.387          -0.260          -0.885       5.783e-01          0.7573
 311       8.541e+00      -1.811e+01       1.543e+00          -0.800          -0.412          -0.436       3.924e-01         -0.8462
 312       8.541e+00      -1.811e+01       1.690e+00          -0.812          -0.341           0.474       3.766e-01         -4.9168
 313       8.705e+00      -1.811e+01       1.811e+00          -0.361          -0.094           0.928       5.566e-01         -5.0427
 314       9.024e+00      -1.810e+01       1.890e+00          -0.156           0.004           0.988       8.350e-01         -2.6487
 315       9.479e+00      -1.810e+01       1.940e+00          -0.075           0.041           0.996       1.090e+00         -1.7043
 316       1.004e+01      -1.810e+01       1.966e+00          -0.021           0.065           0.998       1.286e+00         -1.2699
 317       1.068e+01      -1.810e+01       1.965e+00           0.021           0.082           0.996       1.412e+00         -1.0065
 318       1.137e+01      -1.810e+01       1.938e+00           0.058           0.096           0.994       1.457e+00         -0.8281
 319       1.205e+01      -1.810e+01       1.884e+00           0.100           0.111           0.989       1.422e+00         -0.6863
 320       1.269e+01      -1.810e+01       1.803e+00           0.153           0.129           0.980       1.308e+00         -0.5369
 321       1.325e+01      -1.811e+01       1.699e+00           0.210           0.145           0.967       1.120e+00         -0.3675
 322       1.371e+01      -1.811e+01       1.590e+00           0.260           0.159           0.952       8.629e-01         -0.1852
 323       1.402e+01      -1.811e+01       1.498e+00           0.299           0.168           0.939       5.461e-01         -0.0526
 324       1.419e+01      -1.811e+01       1.435e+00           0.494           0.210           0.844       2.063e-01          0.2190
Strip 13
 325       1.363e+01      -1.596e+01       1.202e+00          -0.064          -0.114          -0.991       2.008e-01          0.1096
 326       1.345e+01      -1.596e+01       1.235e+00          -0.216          -0.150          -0.965       6.063e-01          0.3536
 327       1.311e+01      -1.596e+01       1.278e+00          -0.065          -0.112          -0.992       9.459e-01          0.4500
 328       1.262e+01      -1.596e+01       1.264e+00           0.099          -0.065          -0.993       1.246e+00          0.4209
 329       1.201e+01      -1.596e+01       1.173e+00           0.187          -0.037          -0.982       1.492e+00          0.3198
 330       1.132e+01      -1.596e+01       1.050e+00           0.163          -0.044          -0.986       1.630e+00          0.1933
 331       1.058e+01      -1.596e+01       9.673e-01           0.062          -0.080          -0.995       1.662e+00          0.1562
 332       9.846e+00      -1.596e+01       9.494e-01          -0.014          -0.108          -0.994       1.614e+00          0.2286
 333       9.154e+00      -1.596e+01       9.779e-01          -0.070          -0.130          -0.989       1.479e+00          0.3484
 334       8.545e+00      -1.596e+01       1.036e+00          -0.122          -0.150          -0.981       1.259e+00          0.4997
 335       8.054e+00      -1.596e+01       1.114e+00          -0.200          -0.183          -0.963       9.733e-01          0.6901
 336       7.710e+00      -1.596e+01       1.216e+00          -0.388          -0.261          -0.884       6.599e-01          0.7686
 337       7.533e+00      -1.596e+01       1.354e+00          -0.800          -0.412          -0.437       4.478e-01         -0.7493
 338       7.533e+00      -1.595e+01       1.513e+00          -0.812          -0.341           0.473       4.284e-01         -4.7521
 339       7.710e+00      -1.595e+01       1.643e+00          -0.360          -0.094           0.928       6.332e-01         -4.9319
 340       8.054e+00      -1.595e+01       1.727e+00          -0.154           0.005           0.988       9.507e-01         -2.5954
 341       8.545e+00      -1.595e+01       1.781e+00          -0.073           0.042           0.996       1.241e+00         -1.6725
 342       9.154e+00      -1.595e+01       1.808e+00          -0.019           0.065           0.998       1.465e+00         -1.2481
 343       9.846e+00      -1.595e+01       1.806e+00           0.023           0.083           0.996       1.608e+00         -0.9906
 344       1.058e+01      -1.595e+01       1.775e+00           0.060           0.097           0.993       1.661e+00         -0.8160
 345       1.132e+01      -1.595e+01       1.715e+00           0.102           0.112           0.988       1.620e+00         -0.6771
 346       1.201e+01      -1.595e+01       1.626e+00           0.155           0.129           0.979       1.491e+00         -0.5298
 347       1.262e+01      -1.595e+01       1.513e+00           0.212           0.146           0.966       1.277e+00         -0.3625
 348       1.311e+01      -1.595e+01       1.394e+00           0.262           0.159           0.952       9.839e-01         -0.1820
 349       1.345e+01      -1.595e+01       1.294e+00           0.300           0.169           0.939       6.227e-01         -0.0510
 350       1.363e+01      -1.596e+01       1.225e+00           0.495           0.210           0.843       2.354e-01          0.2190
Strip 14
 351       1.304e+01      -1.369e+01       9.807e-01          -0.066          -0.114          -0.991       2.262e-01          0.1089
 352       1.285e+01      -1.369e+01       1.016e+00          -0.217          -0.151          -0.964       6.835e-01          0.3539
 353       1.248e+01      -1.369e+01       1.063e+00          -0.066          -0.112          -0.991       1.066e+00          0.4503
 354       1.195e+01      -1.369e+01       1.049e+00           0.097          -0.066          -0.993       1.403e+00          0.4207
 355       1.129e+01      -1.369e+01       9.524e-01           0.186          -0.037          -0.982       1.680e+00          0.3179
 356       1.055e+01      -1.369e+01       8.212e-01           0.162          -0.045          -0.986       1.835e+00          0.1885
 357       9.756e+00      -1.370e+01       7.330e-01           0.060          -0.081          -0.995       1.872e+00          0.1486
 358       8.965e+00      -1.370e+01       7.151e-01          -0.016          -0.109          -0.994       1.819e+00          0.2190
 359       8.219e+00      -1.370e+01       7.470e-01          -0.071          -0.130          -0.989       1.666e+00          0.3372
 360       7.563e+00      -1.370e+01       8.103e-01          -0.123          -0.151          -0.981       1.419e+00          0.4873
 361       7.034e+00      -1.370e+01       8.956e-01          -0.202          -0.183          -0.962       1.097e+00          0.6788
 362       6.664e+00      -1.369e+01       1.006e+00          -0.389          -0.261          -0.884       7.445e-01          0.7804
 363       6.473e+00      -1.369e+01       1.155e+00          -0.799          -0.412          -0.438       5.052e-01         -0.6361
 364       6.473e+00      -1.369e+01       1.327e+00          -0.813          -0.341           0.472       4.819e-01         -4.5486
 365       6.664e+00      -1.369e+01       1.466e+00          -0.359          -0.093           0.929       7.124e-01         -4.7901
 366       7.034e+00      -1.368e+01       1.556e+00          -0.152           0.006           0.988       1.070e+00         -2.5284
 367       7.563e+00      -1.368e+01       1.613e+00          -0.072           0.043           0.997       1.398e+00         -1.6330
 368       8.219e+00      -1.368e+01       1.641e+00          -0.018           0.066           0.998       1.651e+00         -1.2211
 369       8.965e+00      -1.368e+01       1.638e+00           0.024           0.083           0.996       1.812e+00         -0.9711
 370       9.756e+00      -1.368e+01       1.604e+00           0.061           0.098           0.993       1.871e+00         -0.8014
 371       1.055e+01      -1.368e+01       1.538e+00           0.104           0.113           0.988       1.826e+00         -0.6660
 372       1.129e+01      -1.368e+01       1.440e+00           0.156           0.130           0.979       1.680e+00         -0.5217
 373       1.195e+01      -1.369e+01       1.318e+00           0.213           0.146           0.966       1.440e+00         -0.3569
 374       1.248e+01      -1.369e+01       1.189e+00           0.263           0.159           0.951       1.109e+00         -0.1786
 375       1.285e+01      -1.369e+01       1.080e+00           0.302           0.169           0.938       7.021e-01         -0.0496
 376       1.304e+01      -1.369e+01       1.006e+00           0.496           0.211           0.843       2.655e-01          0.2184
Strip 15
 377       1.243e+01      -1.133e+01       7.501e-01          -0.068          -0.114          -0.991       2.521e-01          0.1076
 378       1.222e+01      -1.133e+01       7.883e-01          -0.219          -0.151          -0.964       7.621e-01          0.3539
 379       1.182e+01      -1.133e+01       8.397e-01          -0.068          -0.113          -0.991       1.188e+00          0.4504
 380       1.125e+01      -1.133e+01       8.254e-01           0.096          -0.066          -0.993       1.563e+00          0.4200
 381       1.055e+01      -1.133e+01       7.225e-01           0.184          -0.038          -0.982       1.871e+00          0.3153
 382       9.749e+00      -1.133e+01       5.827e-01           0.161          -0.045          -0.986       2.044e+00          0.1823
 383       8.898e+00      -1.134e+01       4.891e-01           0.059          -0.082          -0.995       2.086e+00          0.1389
 384       8.047e+00      -1.134e+01       4.711e-01          -0.017          -0.109          -0.994       2.027e+00          0.2069
 385       7.246e+00      -1.134e+01       5.066e-01          -0.073          -0.131          -0.989       1.857e+00          0.3232
 386       6.541e+00      -1.134e+01       5.757e-01          -0.125          -0.151          -0.981       1.582e+00          0.4716
 387       5.973e+00      -1.133e+01       6.683e-01          -0.203          -0.184          -0.962       1.224e+00          0.6640
 388       5.575e+00      -1.133e+01       7.872e-01          -0.390          -0.262          -0.883       8.307e-01          0.7916
 389       5.370e+00      -1.133e+01       9.481e-01          -0.799          -0.412          -0.438       5.638e-01         -0.5066
 390       5.370e+00      -1.133e+01       1.132e+00          -0.813          -0.342           0.471       5.363e-01         -4.3040
 391       5.575e+00      -1.133e+01       1.282e+00          -0.358          -0.093           0.929       7.930e-01         -4.6154
 392       5.973e+00      -1.133e+01       1.379e+00          -0.151           0.007           0.988       1.192e+00         -2.4471
 393       6.541e+00      -1.132e+01       1.439e+00          -0.070           0.043           0.997       1.557e+00         -1.5854
 394       7.246e+00      -1.132e+01       1.468e+00          -0.016           0.067           0.998       1.839e+00         -1.1892
 395       8.048e+00      -1.132e+01       1.463e+00           0.026           0.084           0.996       2.020e+00         -0.9483
 396       8.898e+00      -1.132e+01       1.425e+00           0.063           0.098           0.993       2.086e+00         -0.7847
 397       9.749e+00      -1.132e+01       1.353e+00           0.105           0.113           0.988       2.036e+00         -0.6536
 398       1.055e+01      -1.133e+01       1.247e+00           0.158           0.130           0.979       1.873e+00         -0.5127
 399       1.125e+01      -1.133e+01       1.114e+00           0.214           0.146           0.966       1.605e+00         -0.3509
 400       1.182e+01      -1.133e+01       9.744e-01           0.265           0.160           0.951       1.237e+00         -0.1753
 401       1.222e+01      -1.133e+01       8.570e-01           0.303           0.169           0.938       7.830e-01         -0.0486
 402       1.243e+01      -1.133e+01       7.772e-01           0.496           0.211           0.842       2.962e-01          0.2172
Strip 16
 403       1.179e+01      -8.895e+00       5.120e-01          -0.069          -0.115          -0.991       2.780e-01          0.1059
 404       1.157e+01      -8.894e+00       5.532e-01          -0.220          -0.151          -0.964       8.407e-01          0.3537
 405       1.115e+01      -8.894e+00       6.089e-01          -0.069          -0.113          -0.991       1.310e+00          0.4502
 406       1.054e+01      -8.894e+00       5.943e-01           0.095          -0.066          -0.993       1.723e+00          0.4191
 407       9.782e+00      -8.895e+00       4.851e-01           0.183          -0.038          -0.982       2.062e+00          0.3119
 408       8.923e+00      -8.897e+00       3.363e-01           0.159          -0.046          -0.986       2.253e+00          0.1746
 409       8.012e+00      -8.898e+00       2.372e-01           0.057          -0.082          -0.995       2.299e+00          0.1270
 410       7.100e+00      -8.899e+00       2.191e-01          -0.019          -0.110          -0.994       2.235e+00          0.1922
 411       6.241e+00      -8.899e+00       2.582e-01          -0.074          -0.131          -0.989       2.048e+00          0.3060
 412       5.486e+00      -8.898e+00       3.333e-01          -0.126          -0.152          -0.980       1.745e+00          0.4520
 413       4.877e+00      -8.897e+00       4.334e-01          -0.204          -0.184          -0.961       1.350e+00          0.6449
 414       4.450e+00      -8.896e+00       5.615e-01          -0.390          -0.262          -0.883       9.169e-01          0.8011
 415       4.230e+00      -8.895e+00       7.343e-01          -0.798          -0.412          -0.439       6.224e-01         -0.3590
 416       4.230e+00      -8.893e+00       9.319e-01          -0.814          -0.342           0.470       5.906e-01         -4.0114
 417       4.450e+00      -8.891e+00       1.092e+00          -0.357          -0.092           0.930       8.734e-01         -4.4010
 418       4.877e+00      -8.890e+00       1.195e+00          -0.150           0.007           0.989       1.314e+00         -2.3485
 419       5.486e+00      -8.889e+00       1.259e+00          -0.069           0.044           0.997       1.717e+00         -1.5287
 420       6.241e+00      -8.889e+00       1.289e+00          -0.015           0.067           0.998       2.028e+00         -1.1519
 421       7.100e+00      -8.889e+00       1.283e+00           0.027           0.084           0.996       2.227e+00         -0.9225
 422       8.012e+00      -8.889e+00       1.240e+00           0.064           0.099           0.993       2.300e+00         -0.7664
 423       8.923e+00      -8.889e+00       1.162e+00           0.106           0.113           0.988       2.245e+00         -0.6406
 424       9.782e+00      -8.890e+00       1.047e+00           0.159           0.130           0.979       2.067e+00         -0.5038
 425       1.054e+01      -8.891e+00       9.038e-01           0.216           0.147           0.965       1.771e+00         -0.3453
 426       1.115e+01      -8.893e+00       7.533e-01           0.266           0.160           0.951       1.365e+00         -0.1725
 427       1.157e+01      -8.894e+00       6.269e-01           0.304           0.169           0.937       8.640e-01         -0.0484
 428       1.179e+01      -8.894e+00       5.410e-01           0.497           0.211           0.842       3.269e-01          0.2150
Strip 17
 429       1.114e+01      -6.397e+00       2.679e-01          -0.070          -0.115          -0.991       3.035e-01          0.1035
 430       1.091e+01      -6.397e+00       3.123e-01          -0.221          -0.152          -0.963       9.178e-01          0.3533
 431       1.045e+01      -6.397e+00       3.723e-01          -0.070          -0.113          -0.991       1.430e+00          0.4499
 432       9.802e+00      -6.397e+00       3.575e-01           0.093          -0.067          -0.993       1.880e+00          0.4178
 433       8.995e+00      -6.398e+00       2.417e-01           0.182          -0.038          -0.983       2.250e+00          0.3077
 434       8.077e+00      -6.399e+00       8.373e-02           0.158          -0.046          -0.986       2.458e+00          0.1654
 435       7.103e+00      -6.400e+00      -2.101e-02           0.056          -0.082          -0.995       2.509e+00          0.1129
 436       6.129e+00      -6.400e+00      -3.923e-02          -0.020          -0.110          -0.994       2.439e+00          0.1746
 437       5.211e+00      -6.400e+00       3.733e-03          -0.075          -0.132          -0.988       2.236e+00          0.2852
 438       4.404e+00      -6.400e+00       8.495e-02          -0.127          -0.152          -0.980       1.905e+00          0.4278
 439       3.753e+00      -6.399e+00       1.927e-01          -0.205          -0.185          -0.961       1.474e+00          0.6199
 440       3.297e+00      -6.398e+00       3.301e-01          -0.391          -0.262          -0.882       1.002e+00          0.8075
 441       3.062e+00      -6.397e+00       5.151e-01          -0.798          -0.412          -0.440       6.799e-01         -0.1876
 442       3.062e+00      -6.396e+00       7.264e-01          -0.814          -0.342           0.470       6.438e-01         -3.6519
 443       3.297e+00      -6.395e+00       8.973e-01          -0.356          -0.092           0.930       9.522e-01         -4.1303
 444       3.753e+00      -6.394e+00       1.007e+00          -0.149           0.008           0.989       1.433e+00         -2.2252
 445       4.404e+00      -6.393e+00       1.074e+00          -0.068           0.044           0.997       1.873e+00         -1.4596
 446       5.211e+00      -6.393e+00       1.105e+00          -0.014           0.068           0.998       2.213e+00         -1.1086
 447       6.129e+00      -6.393e+00       1.098e+00           0.028           0.085           0.996       2.430e+00         -0.8946
 448       7.103e+00      -6.393e+00       1.051e+00           0.065           0.099           0.993       2.511e+00         -0.7486
 449       8.077e+00      -6.393e+00       9.666e-01           0.108           0.114           0.988       2.451e+00         -0.6294
 450       8.995e+00      -6.394e+00       8.428e-01           0.160           0.131           0.978       2.256e+00         -0.4970
 451       9.803e+00      -6.395e+00       6.884e-01           0.217           0.147           0.965       1.933e+00         -0.3416
 452       1.045e+01      -6.396e+00       5.267e-01           0.267           0.160           0.950       1.490e+00         -0.1713
 453       1.091e+01      -6.396e+00       3.911e-01           0.305           0.170           0.937       9.434e-01         -0.0496
 454       1.114e+01      -6.397e+00       2.989e-01           0.498           0.211           0.841       3.570e-01          0.2115
Strip 18
 455       1.048e+01      -3.856e+00       1.958e-02          -0.071          -0.115          -0.991       3.278e-01          0.1000
 456       1.023e+01      -3.856e+00       6.709e-02          -0.222          -0.152          -0.963       9.918e-01          0.3526
 457       9.748e+00      -3.855e+00       1.316e-01          -0.071          -0.114          -0.991       1.545e+00          0.4494
 458       9.054e+00      -3.856e+00       1.166e-01           0.092          -0.067          -0.993       2.030e+00          0.4159
 459       8.194e+00      -3.856e+00      -5.923e-03           0.181          -0.039          -0.983       2.429e+00          0.3023
 460       7.217e+00      -3.857e+00      -1.732e-01           0.157          -0.047          -0.986       2.654e+00          0.1541
 461       6.179e+00      -3.857e+00      -2.837e-01           0.055          -0.083          -0.995       2.710e+00          0.0968
 462       5.141e+00      -3.858e+00      -3.020e-01          -0.021          -0.111          -0.994       2.634e+00          0.1552
 463       4.163e+00      -3.858e+00      -2.552e-01          -0.076          -0.132          -0.988       2.415e+00          0.2621
 464       3.303e+00      -3.857e+00      -1.678e-01          -0.128          -0.153          -0.980       2.059e+00          0.3994
 465       2.610e+00      -3.857e+00      -5.219e-02          -0.206          -0.185          -0.961       1.593e+00          0.5877
 466       2.124e+00      -3.857e+00       9.476e-02          -0.392          -0.262          -0.882       1.083e+00          0.8092
 467       1.874e+00      -3.856e+00       2.921e-01          -0.798          -0.412          -0.440       7.351e-01          0.0247
 468       1.874e+00      -3.855e+00       5.172e-01          -0.814          -0.342           0.469       6.948e-01         -3.1762
 469       2.124e+00      -3.854e+00       6.992e-01          -0.355          -0.092           0.930       1.028e+00         -3.7580
 470       2.610e+00      -3.854e+00       8.152e-01          -0.148           0.008           0.989       1.548e+00         -2.0569
 471       3.303e+00      -3.853e+00       8.863e-01          -0.067           0.045           0.997       2.023e+00         -1.3695
 472       4.164e+00      -3.853e+00       9.187e-01          -0.013           0.068           0.998       2.390e+00         -1.0575
 473       5.141e+00      -3.853e+00       9.095e-01           0.030           0.085           0.996       2.625e+00         -0.8675
 474       6.179e+00      -3.853e+00       8.591e-01           0.066           0.099           0.993       2.712e+00         -0.7366
 475       7.217e+00      -3.853e+00       7.676e-01           0.109           0.114           0.988       2.648e+00         -0.6265
 476       8.194e+00      -3.854e+00       6.347e-01           0.161           0.131           0.978       2.437e+00         -0.4987
 477       9.054e+00      -3.854e+00       4.691e-01           0.218           0.147           0.965       2.089e+00         -0.3449
 478       9.748e+00      -3.855e+00       2.961e-01           0.268           0.161           0.950       1.610e+00         -0.1750
 479       1.023e+01      -3.855e+00       1.511e-01           0.306           0.170           0.937       1.020e+00         -0.0541
 480       1.048e+01      -3.856e+00       5.259e-02           0.498           0.211           0.841       3.860e-01          0.2058
Strip 19
 481       9.816e+00      -1.288e+00      -2.313e-01          -0.072          -0.116          -0.991       3.506e-01          0.0971
 482       9.551e+00      -1.288e+00      -1.806e-01          -0.223          -0.152          -0.963       1.061e+00          0.3520
 483       9.035e+00      -1.288e+00      -1.116e-01          -0.072          -0.114          -0.991       1.652e+00          0.4482
 484       8.299e+00      -1.288e+00      -1.269e-01           0.091          -0.067          -0.994       2.171e+00          0.4088
 485       7.385e+00      -1.288e+00      -2.561e-01           0.180          -0.039          -0.983       2.596e+00          0.2872
 486       6.347e+00      -1.289e+00      -4.328e-01           0.156          -0.047          -0.987       2.837e+00          0.1350
 487       5.245e+00      -1.289e+00      -5.492e-01           0.054          -0.083          -0.995       2.897e+00          0.0815
 488       4.143e+00      -1.289e+00      -5.676e-01          -0.022          -0.111          -0.994       2.817e+00          0.1451
 489       3.105e+00      -1.289e+00      -5.169e-01          -0.077          -0.133          -0.988       2.583e+00          0.2512
 490       2.191e+00      -1.289e+00      -4.231e-01          -0.129          -0.153          -0.980       2.202e+00          0.3838
 491       1.455e+00      -1.289e+00      -2.996e-01          -0.207          -0.186          -0.961       1.704e+00          0.5640
 492       9.387e-01      -1.288e+00      -1.431e-01          -0.392          -0.263          -0.882       1.159e+00          0.8114
 493       6.731e-01      -1.288e+00       6.686e-02          -0.798          -0.412          -0.441       7.867e-01          0.3223
 494       6.731e-01      -1.288e+00       3.060e-01          -0.814          -0.342           0.468       7.423e-01         -2.4030
 495       9.388e-01      -1.288e+00       4.990e-01          -0.355          -0.091           0.930       1.098e+00         -3.0843
 496       1.455e+00      -1.288e+00       6.218e-01          -0.147           0.008           0.989       1.654e+00         -1.7434
 497       2.191e+00      -1.287e+00       6.966e-01          -0.066           0.045           0.997       2.162e+00         -1.2250
 498       3.105e+00      -1.287e+00       7.300e-01          -0.012           0.068           0.998       2.556e+00         -0.9991
 499       4.143e+00      -1.287e+00       7.193e-01           0.030           0.086           0.996       2.807e+00         -0.8523
 500       5.245e+00      -1.287e+00       6.647e-01           0.067           0.100           0.993       2.900e+00         -0.7482
 501       6.347e+00      -1.287e+00       5.665e-01           0.110           0.115           0.987       2.832e+00         -0.6544
 502       7.385e+00      -1.288e+00       4.243e-01           0.162           0.131           0.978       2.607e+00         -0.5324
 503       8.299e+00      -1.288e+00       2.476e-01           0.218           0.148           0.965       2.235e+00         -0.3748
 504       9.035e+00      -1.288e+00       6.318e-02           0.268           0.161           0.950       1.723e+00         -0.1969
 505       9.551e+00      -1.288e+00      -9.143e-02           0.307           0.170           0.937       1.091e+00         -0.0687
 506       9.816e+00      -1.288e+00      -1.963e-01           0.499           0.211           0.841       4.130e-01          0.1938
Strip 20
 507       9.816e+00       1.288e+00      -2.313e-01          -0.072           0.116          -0.991       3.506e-01          0.0973
 508       9.551e+00       1.288e+00      -1.806e-01          -0.223           0.152          -0.963       1.061e+00          0.3521
 509       9.035e+00       1.288e+00      -1.116e-01          -0.072           0.114          -0.991       1.652e+00          0.4482
 510       8.299e+00       1.288e+00      -1.269e-01           0.091           0.067          -0.994       2.171e+00          0.4088
 511       7.385e+00       1.288e+00      -2.561e-01           0.180           0.039          -0.983       2.596e+00          0.2872
 512       6.347e+00       1.289e+00      -4.328e-01           0.156           0.047          -0.987       2.837e+00          0.1350
 513       5.245e+00       1.289e+00      -5.492e-01           0.054           0.083          -0.995       2.897e+00          0.0815
 514       4.143e+00       1.289e+00      -5.676e-01          -0.022           0.111          -0.994       2.817e+00          0.1451
 515       3.105e+00       1.289e+00      -5.169e-01          -0.077           0.133          -0.988       2.583e+00          0.2512
 516       2.191e+00       1.289e+00      -4.231e-01          -0.129           0.153          -0.980       2.202e+00          0.3838
 517       1.455e+00       1.289e+00      -2.996e-01          -0.207           0.186          -0.961       1.704e+00          0.5640
 518       9.387e-01       1.288e+00      -1.431e-01          -0.392           0.263          -0.882       1.159e+00          0.8114
 519       6.731e-01       1.288e+00       6.686e-02          -0.798           0.412          -0.441       7.867e-01          0.3223
 520       6.731e-01       1.288e+00       3.060e-01          -0.814           0.342           0.468       7.423e-01         -2.4032
 521       9.388e-01       1.288e+00       4.990e-01          -0.355           0.091           0.930       1.098e+00         -3.0844
 522       1.455e+00       1.288e+00       6.218e-01          -0.147          -0.008           0.989       1.654e+00         -1.7435
 523       2.191e+00       1.287e+00       6.966e-01          -0.066          -0.045           0.997       2.162e+00         -1.2251
 524       3.105e+00       1.287e+00       7.300e-01          -0.012          -0.068           0.998       2.556e+00         -0.9991
 525       4.143e+00       1.287e+00       7.193e-01           0.030          -0.086           0.996       2.807e+00         -0.8523
 526       5.245e+00       1.287e+00       6.647e-01           0.067          -0.100           0.993       2.900e+00         -0.7482
 527       6.347e+00       1.287e+00       5.665e-01           0.110          -0.115           0.987       2.832e+00         -0.6544
 528       7.385e+00       1.288e+00       4.243e-01           0.162          -0.131           0.978       2.607e+00         -0.5324
 529       8.299e+00       1.288e+00       2.476e-01           0.218          -0.148           0.965       2.235e+00         -0.3748
 530       9.035e+00       1.288e+00       6.318e-02           0.268          -0.161           0.950       1.723e+00         -0.1969
 531       9.551e+00       1.288e+00      -9.143e-02           0.307          -0.170           0.937       1.091e+00         -0.0687
 532       9.816e+00       1.288e+00      -1.963e-01           0.499          -0.211           0.841       4.130e-01          0.1938
Strip 21
 533       1.048e+01       3.856e+00       1.958e-02          -0.071           0.115          -0.991       3.278e-01          0.1000
 534       1.023e+01       3.856e+00       6.709e-02          -0.222           0.152          -0.963       9.918e-01          0.3526
 535       9.748e+00       3.855e+00       1.316e-01          -0.071           0.114          -0.991       1.545e+00          0.4494
 536       9.054e+00       3.856e+00       1.166e-01           0.092           0.067          -0.993       2.030e+00          0.4159
 537       8.194e+00       3.856e+00      -5.923e-03           0.181           0.039          -0.983       2.429e+00          0.3023
 538       7.217e+00       3.857e+00      -1.732e-01           0.157           0.047          -0.986       2.654e+00          0.1541
 539       6.179e+00       3.857e+00      -2.837e-01           0.055           0.083          -0.995       2.710e+00          0.0968
 540       5.141e+00       3.858e+00      -3.020e-01          -0.021           0.111          -0.994       2.634e+00          0.1552
 541       4.163e+00       3.858e+00      -2.552e-01          -0.076           0.132          -0.988       2.415e+00          0.2621
 542       3.303e+00       3.857e+00      -1.678e-01          -0.128           0.153          -0.980       2.059e+00          0.3994
 543       2.610e+00       3.857e+00      -5.219e-02          -0.206           0.185          -0.961       1.593e+00          0.5877
 544       2.124e+00       3.857e+00       9.476e-02          -0.392           0.262          -0.882       1.083e+00          0.8092
 545       1.874e+00       3.856e+00       2.921e-01          -0.798           0.412          -0.440       7.351e-01          0.0247
 546       1.874e+00       3.855e+00       5.172e-01          -0.814           0.342           0.469       6.948e-01         -3.1762
 547       2.124e+00       3.854e+00       6.992e-01          -0.355           0.092           0.930       1.028e+00         -3.7580
 548       2.610e+00       3.854e+00       8.152e-01          -0.148          -0.008           0.989       1.548e+00         -2.0569
 549       3.303e+00       3.853e+00       8.863e-01          -0.067          -0.045           0.997       2.023e+00         -1.3695
 550       4.164e+00       3.853e+00       9.187e-01          -0.013          -0.068           0.998       2.390e+00         -1.0575
 551       5.141e+00       3.853e+00       9.095e-01           0.030          -0.085           0.996       2.625e+00         -0.8675
 552       6.179e+00       3.853e+00       8.591e-01           0.066          -0.099           0.993       2.712e+00         -0.7366
 553       7.217e+00       3.853e+00       7.676e-01           0.109          -0.114           0.988       2.648e+00         -0.6265
 554       8.194e+00       3.854e+00       6.347e-01           0.161          -0.131           0.978       2.437e+00         -0.4987
 555       9.054e+00       3.854e+00       4.691e-01           0.218          -0.147           0.965       2.089e+00         -0.3449
 556       9.748e+00       3.855e+00       2.961e-01           0.268          -0.161           0.950       1.610e+00         -0.1750
 557       1.023e+01       3.855e+00       1.511e-01           0.306          -0.170           0.937       1.020e+00         -0.0541
 558       1.048e+01       3.856e+00       5.259e-02           0.498          -0.211           0.841       3.860e-01          0.2058
Strip 22
 559       1.114e+01       6.397e+00       2.679e-01          -0.070           0.115          -0.991       3.035e-01          0.1035
 560       1.091e+01       6.397e+00       3.123e-01          -0.221           0.152          -0.963       9.178e-01          0.3533
 561       1.045e+01       6.397e+00       3.723e-01          -0.070           0.113          -0.991       1.430e+00          0.4499
 562       9.802e+00       6.397e+00       3.575e-01           0.093           0.067          -0.993       1.880e+00          0.4178
 563       8.995e+00       6.398e+00       2.417e-01           0.182           0.038          -0.983       2.250e+00          0.3077
[...]
 853       1.412e+01       2.802e+01       2.206e+00          -0.054           0.123          -0.991       4.443e-01          0.3192
 854       1.376e+01       2.802e+01       2.234e+00          -0.106           0.144          -0.984       3.777e-01          0.4794
 855       1.347e+01       2.801e+01       2.275e+00          -0.186           0.177          -0.966       2.911e-01          0.6784
 856       1.327e+01       2.801e+01       2.332e+00          -0.379           0.257          -0.889       1.961e-01          0.7440
 857       1.317e+01       2.801e+01       2.411e+00          -0.804           0.413          -0.427       1.330e-01         -0.8899
 858       1.317e+01       2.800e+01       2.504e+00          -0.808           0.338           0.482       1.309e-01         -4.8112
 859       1.327e+01       2.799e+01       2.582e+00          -0.370           0.099           0.924       1.932e-01         -4.8682
 860       1.347e+01       2.799e+01       2.635e+00          -0.169           0.002           0.986       2.881e-01         -2.5812
 861       1.376e+01       2.799e+01       2.671e+00          -0.089          -0.035           0.995       3.750e-01         -1.6582
 862       1.412e+01       2.799e+01       2.693e+00          -0.035          -0.059           0.998       4.419e-01         -1.2292
 863       1.453e+01       2.799e+01       2.698e+00           0.007          -0.077           0.997       4.843e-01         -0.9682
 864       1.496e+01       2.799e+01       2.687e+00           0.044          -0.091           0.995       4.995e-01         -0.7931
 865       1.540e+01       2.799e+01       2.659e+00           0.086          -0.107           0.991       4.867e-01         -0.6580
 866       1.580e+01       2.799e+01       2.613e+00           0.139          -0.125           0.982       4.471e-01         -0.5186
 867       1.616e+01       2.799e+01       2.552e+00           0.197          -0.142           0.970       3.824e-01         -0.3600
 868       1.645e+01       2.800e+01       2.487e+00           0.248          -0.156           0.956       2.943e-01         -0.1862
 869       1.665e+01       2.800e+01       2.432e+00           0.288          -0.166           0.943       1.861e-01         -0.0610
 870       1.676e+01       2.800e+01       2.393e+00           0.487          -0.209           0.848       7.008e-02          0.2131
Strip 34
 871       1.703e+01       2.904e+01       2.481e+00          -0.046           0.109          -0.993       4.697e-02          0.0744
 872       1.693e+01       2.904e+01       2.497e+00          -0.199           0.146          -0.969       1.412e-01          0.3004
 873       1.674e+01       2.904e+01       2.517e+00          -0.046           0.107          -0.993       2.213e-01          0.3879
 874       1.647e+01       2.904e+01       2.504e+00           0.117           0.060          -0.991       2.931e-01          0.3522
 875       1.613e+01       2.904e+01       2.448e+00           0.204           0.031          -0.978       3.521e-01          0.2460
 876       1.575e+01       2.905e+01       2.373e+00           0.181           0.038          -0.983       3.844e-01          0.1150
 877       1.534e+01       2.905e+01       2.320e+00           0.080           0.074          -0.994       3.906e-01          0.0743
 878       1.493e+01       2.905e+01       2.302e+00           0.004           0.101          -0.995       3.782e-01          0.1489
 879       1.455e+01       2.905e+01       2.311e+00          -0.052           0.122          -0.991       3.456e-01          0.2768
 880       1.421e+01       2.905e+01       2.337e+00          -0.104           0.143          -0.984       2.937e-01          0.4406
 881       1.394e+01       2.905e+01       2.375e+00          -0.184           0.176          -0.967       2.262e-01          0.6479
 882       1.375e+01       2.905e+01       2.427e+00          -0.377           0.257          -0.890       1.523e-01          0.7535
 883       1.365e+01       2.904e+01       2.502e+00          -0.805           0.414          -0.426       1.032e-01         -0.7415
 884       1.365e+01       2.903e+01       2.590e+00          -0.807           0.338           0.484       1.021e-01         -4.4956
 885       1.375e+01       2.903e+01       2.663e+00          -0.371           0.099           0.923       1.507e-01         -4.6119
 886       1.394e+01       2.903e+01       2.713e+00          -0.171           0.003           0.985       2.244e-01         -2.4544
 887       1.421e+01       2.902e+01       2.748e+00          -0.092          -0.034           0.995       2.919e-01         -1.5724
 888       1.455e+01       2.902e+01       2.769e+00          -0.038          -0.058           0.998       3.439e-01         -1.1600
 889       1.493e+01       2.902e+01       2.775e+00           0.004          -0.076           0.997       3.768e-01         -0.9092
 890       1.534e+01       2.902e+01       2.765e+00           0.041          -0.090           0.995       3.885e-01         -0.7430
 891       1.575e+01       2.902e+01       2.740e+00           0.084          -0.106           0.991       3.785e-01         -0.6179
 892       1.613e+01       2.903e+01       2.698e+00           0.137          -0.124           0.983       3.477e-01         -0.4905
 893       1.647e+01       2.903e+01       2.642e+00           0.195          -0.141           0.971       2.973e-01         -0.3446
 894       1.674e+01       2.903e+01       2.581e+00           0.246          -0.155           0.957       2.287e-01         -0.1814
 895       1.693e+01       2.904e+01       2.529e+00           0.286          -0.165           0.944       1.446e-01         -0.0646
 896       1.703e+01       2.904e+01       2.494e+00           0.486          -0.209           0.849       5.443e-02          0.2085
Strip 35
 897       1.725e+01       2.988e+01       2.562e+00          -0.044           0.108          -0.993       3.496e-02          0.0375
 898       1.715e+01       2.988e+01       2.577e+00          -0.197           0.146          -0.969       1.050e-01          0.2530
 899       1.697e+01       2.987e+01       2.596e+00          -0.044           0.106          -0.993       1.647e-01          0.3340
 900       1.671e+01       2.988e+01       2.584e+00           0.119           0.059          -0.991       2.183e-01          0.2958
 901       1.639e+01       2.988e+01       2.530e+00           0.206           0.030          -0.978       2.624e-01          0.1880
 902       1.603e+01       2.988e+01       2.458e+00           0.183           0.037          -0.982       2.864e-01          0.0532
 903       1.564e+01       2.989e+01       2.406e+00           0.082           0.073          -0.994       2.909e-01          0.0071
 904       1.526e+01       2.989e+01       2.389e+00           0.007           0.100          -0.995       2.816e-01          0.0780
 905       1.489e+01       2.989e+01       2.396e+00          -0.049           0.121          -0.991       2.572e-01          0.2056
 906       1.457e+01       2.989e+01       2.420e+00          -0.102           0.142          -0.985       2.185e-01          0.3737
 907       1.432e+01       2.989e+01       2.456e+00          -0.182           0.175          -0.968       1.683e-01          0.5928
 908       1.414e+01       2.988e+01       2.505e+00          -0.376           0.256          -0.891       1.132e-01          0.7555
 909       1.404e+01       2.988e+01       2.575e+00          -0.805           0.414          -0.425       7.669e-02         -0.5317
 910       1.404e+01       2.987e+01       2.658e+00          -0.807           0.337           0.485       7.615e-02         -4.0502
 911       1.414e+01       2.986e+01       2.728e+00          -0.373           0.100           0.923       1.124e-01         -4.2509
 912       1.432e+01       2.986e+01       2.776e+00          -0.173           0.004           0.985       1.672e-01         -2.2661
 913       1.457e+01       2.986e+01       2.809e+00          -0.094          -0.033           0.995       2.174e-01         -1.4405
 914       1.489e+01       2.986e+01       2.830e+00          -0.040          -0.057           0.998       2.561e-01         -1.0520
 915       1.526e+01       2.986e+01       2.837e+00           0.002          -0.075           0.997       2.805e-01         -0.8185
 916       1.564e+01       2.986e+01       2.829e+00           0.039          -0.090           0.995       2.892e-01         -0.6697
 917       1.603e+01       2.986e+01       2.805e+00           0.082          -0.105           0.991       2.817e-01         -0.5635
 918       1.639e+01       2.986e+01       2.766e+00           0.135          -0.123           0.983       2.587e-01         -0.4571
 919       1.671e+01       2.987e+01       2.714e+00           0.193          -0.141           0.971       2.212e-01         -0.3328
 920       1.697e+01       2.987e+01       2.657e+00           0.244          -0.155           0.957       1.701e-01         -0.1874
 921       1.715e+01       2.987e+01       2.608e+00           0.284          -0.165           0.945       1.076e-01         -0.0837
 922       1.725e+01       2.988e+01       2.575e+00           0.485          -0.208           0.849       4.046e-02          0.1893
Strip 36
 923       1.741e+01       3.051e+01       2.624e+00          -0.042           0.108          -0.993       2.411e-02         -0.0707
 924       1.732e+01       3.051e+01       2.638e+00          -0.195           0.146          -0.970       7.239e-02          0.1240
 925       1.715e+01       3.051e+01       2.656e+00          -0.042           0.106          -0.993       1.136e-01          0.1970
 926       1.690e+01       3.051e+01       2.644e+00           0.121           0.058          -0.991       1.506e-01          0.1663
 927       1.659e+01       3.051e+01       2.591e+00           0.208           0.030          -0.978       1.811e-01          0.0737
 928       1.624e+01       3.052e+01       2.522e+00           0.185           0.037          -0.982       1.977e-01         -0.0478
 929       1.587e+01       3.052e+01       2.472e+00           0.084           0.072          -0.994       2.007e-01         -0.0905
 930       1.550e+01       3.052e+01       2.454e+00           0.008           0.100          -0.995       1.942e-01         -0.0262
 931       1.515e+01       3.052e+01       2.461e+00          -0.047           0.121          -0.992       1.774e-01          0.0898
 932       1.485e+01       3.052e+01       2.483e+00          -0.100           0.141          -0.985       1.507e-01          0.2527
 933       1.460e+01       3.052e+01       2.516e+00          -0.180           0.174          -0.968       1.159e-01          0.4841
 934       1.443e+01       3.051e+01       2.563e+00          -0.375           0.256          -0.891       7.792e-02          0.7217
 935       1.434e+01       3.051e+01       2.631e+00          -0.806           0.414          -0.423       5.280e-02         -0.2774
 936       1.434e+01       3.050e+01       2.710e+00          -0.806           0.337           0.486       5.261e-02         -3.4694
 937       1.443e+01       3.050e+01       2.778e+00          -0.374           0.101           0.922       7.762e-02         -3.7691
 938       1.460e+01       3.049e+01       2.824e+00          -0.175           0.004           0.985       1.154e-01         -2.0001
 939       1.485e+01       3.049e+01       2.856e+00          -0.096          -0.032           0.995       1.500e-01         -1.2499
 940       1.515e+01       3.049e+01       2.877e+00          -0.042          -0.056           0.998       1.766e-01         -0.9016
 941       1.550e+01       3.049e+01       2.884e+00           0.000          -0.074           0.997       1.935e-01         -0.7052
 942       1.587e+01       3.049e+01       2.877e+00           0.037          -0.089           0.995       1.994e-01         -0.5934
 943       1.624e+01       3.049e+01       2.855e+00           0.080          -0.105           0.991       1.942e-01         -0.5238
 944       1.659e+01       3.049e+01       2.818e+00           0.133          -0.123           0.983       1.783e-01         -0.4543
 945       1.690e+01       3.050e+01       2.769e+00           0.191          -0.140           0.972       1.524e-01         -0.3680
 946       1.715e+01       3.050e+01       2.714e+00           0.243          -0.154           0.958       1.173e-01         -0.2566
 947       1.732e+01       3.051e+01       2.668e+00           0.282          -0.164           0.945       7.412e-02         -0.1771
 948       1.741e+01       3.051e+01       2.636e+00           0.484          -0.208           0.850       2.786e-02          0.0993
Strip 37
 949       1.752e+01       3.093e+01       2.666e+00          -0.041           0.108          -0.993       1.411e-02         -0.5884
 950       1.743e+01       3.093e+01       2.679e+00          -0.194           0.145          -0.970       4.236e-02         -0.4556
 951       1.727e+01       3.093e+01       2.696e+00          -0.041           0.106          -0.994       6.649e-02         -0.3457
 952       1.702e+01       3.093e+01       2.684e+00           0.122           0.058          -0.991       8.822e-02         -0.2378
 953       1.673e+01       3.094e+01       2.633e+00           0.209           0.029          -0.977       1.061e-01         -0.1809
 954       1.639e+01       3.094e+01       2.565e+00           0.186           0.036          -0.982       1.158e-01         -0.2071
 955       1.603e+01       3.095e+01       2.516e+00           0.085           0.072          -0.994       1.175e-01         -0.2116
 956       1.567e+01       3.095e+01       2.498e+00           0.010           0.099          -0.995       1.137e-01         -0.1481
 957       1.533e+01       3.095e+01       2.504e+00          -0.046           0.120          -0.992       1.038e-01         -0.0592
 958       1.503e+01       3.095e+01       2.525e+00          -0.099           0.141          -0.985       8.817e-02          0.0525
 959       1.479e+01       3.094e+01       2.557e+00          -0.179           0.174          -0.968       6.784e-02          0.2626
 960       1.462e+01       3.094e+01       2.603e+00          -0.374           0.255          -0.892       4.557e-02          0.5593
 961       1.454e+01       3.093e+01       2.668e+00          -0.806           0.414          -0.423       3.088e-02         -0.0722
 962       1.454e+01       3.093e+01       2.745e+00          -0.806           0.337           0.487       3.084e-02         -2.7611
 963       1.462e+01       3.092e+01       2.811e+00          -0.374           0.101           0.922       4.549e-02         -3.1356
 964       1.479e+01       3.092e+01       2.856e+00          -0.176           0.005           0.984       6.761e-02         -1.6349
 965       1.503e+01       3.091e+01       2.888e+00          -0.097          -0.032           0.995       8.786e-02         -1.0028
 966       1.533e+01       3.091e+01       2.908e+00          -0.043          -0.055           0.998       1.034e-01         -0.7446
 967       1.567e+01       3.091e+01       2.915e+00          -0.001          -0.073           0.997       1.133e-01         -0.6171
 968       1.603e+01       3.091e+01       2.909e+00           0.036          -0.088           0.995       1.167e-01         -0.5629
 969       1.639e+01       3.091e+01       2.888e+00           0.079          -0.104           0.991       1.137e-01         -0.5596
 970       1.673e+01       3.092e+01       2.853e+00           0.132          -0.122           0.984       1.044e-01         -0.5960
 971       1.702e+01       3.092e+01       2.805e+00           0.190          -0.140           0.972       8.920e-02         -0.6638
 972       1.727e+01       3.093e+01       2.753e+00           0.242          -0.154           0.958       6.860e-02         -0.7148
 973       1.743e+01       3.093e+01       2.708e+00           0.281          -0.164           0.946       4.337e-02         -0.7383
 974       1.752e+01       3.093e+01       2.677e+00           0.483          -0.208           0.850       1.630e-02         -0.4697
Strip 38
 975       1.758e+01       3.115e+01       2.686e+00          -0.040           0.107          -0.993       4.645e-03         -1.2212
 976       1.749e+01       3.114e+01       2.700e+00          -0.194           0.145          -0.970       1.394e-02         -1.2014
 977       1.732e+01       3.114e+01       2.717e+00          -0.040           0.105          -0.994       2.188e-02         -1.0781
 978       1.709e+01       3.114e+01       2.704e+00           0.123           0.058          -0.991       2.904e-02         -0.7947
 979       1.679e+01       3.115e+01       2.653e+00           0.210           0.029          -0.977       3.492e-02         -0.5170
 980       1.646e+01       3.115e+01       2.586e+00           0.187           0.036          -0.982       3.812e-02         -0.3723
 981       1.611e+01       3.116e+01       2.538e+00           0.086           0.071          -0.994       3.868e-02         -0.2951
 982       1.575e+01       3.116e+01       2.520e+00           0.010           0.099          -0.995       3.742e-02         -0.2211
 983       1.542e+01       3.116e+01       2.526e+00          -0.045           0.120          -0.992       3.417e-02         -0.1407
 984       1.512e+01       3.116e+01       2.546e+00          -0.098           0.140          -0.985       2.901e-02         -0.0855
 985       1.489e+01       3.116e+01       2.578e+00          -0.178           0.174          -0.969       2.232e-02          0.0864
 986       1.472e+01       3.115e+01       2.622e+00          -0.374           0.255          -0.892       1.499e-02          0.3835
 987       1.464e+01       3.115e+01       2.687e+00          -0.806           0.414          -0.422       1.016e-02          0.1156
 988       1.464e+01       3.114e+01       2.763e+00          -0.806           0.337           0.487       1.016e-02         -1.9553
 989       1.472e+01       3.113e+01       2.827e+00          -0.375           0.101           0.922       1.498e-02         -2.4070
 990       1.489e+01       3.113e+01       2.872e+00          -0.177           0.005           0.984       2.226e-02         -1.2747
 991       1.512e+01       3.113e+01       2.903e+00          -0.098          -0.031           0.995       2.892e-02         -0.8051
 992       1.542e+01       3.113e+01       2.923e+00          -0.044          -0.055           0.998       3.405e-02         -0.6329
 993       1.575e+01       3.112e+01       2.931e+00          -0.002          -0.073           0.997       3.728e-02         -0.5675
 994       1.611e+01       3.113e+01       2.925e+00           0.035          -0.088           0.995       3.842e-02         -0.5339
 995       1.646e+01       3.113e+01       2.905e+00           0.078          -0.104           0.992       3.741e-02         -0.5498
 996       1.679e+01       3.113e+01       2.870e+00           0.131          -0.122           0.984       3.434e-02         -0.6492
 997       1.709e+01       3.113e+01       2.823e+00           0.189          -0.140           0.972       2.935e-02         -0.8781
 998       1.732e+01       3.114e+01       2.772e+00           0.241          -0.154           0.958       2.257e-02         -1.1789
 999       1.749e+01       3.114e+01       2.728e+00           0.281          -0.164           0.946       1.427e-02         -1.3727
1000       1.758e+01       3.114e+01       2.698e+00           0.483          -0.208           0.851       5.361e-03         -1.1625










