xflr5 v6.47

Plane Name
T1-10.0 m/s-Panel-Inviscid
QInf  =   10.000000 m/s
Alpha =    0.000000
Beta  =    0.000°
Phi   =    0.000°
Ctrl  =    0.000
CL    =    0.508651
Cy    =   -0.000000
Cd    =    0.008158     ICd   =    0.008158     PCd   =    0.000000
Cl   = 1.14413e-06
Cm   =   -0.702886
ICn   =   -0.000002     PCn   =   -0.000002 
XCP   =    9.462582     YCP   =   -0.000133     ZCP   =    1.524695  
XNP   =    0.000000
Bending = 72671.460018

Main Wing
  y-span        Chord      Ai         Cl        PCd          ICd        CmGeom    CmAirf@chord/4    XTrtop    XTrBot      XCP       BM
  -31.2615     2.9832    -4.990    0.169574    0.000000    0.014814   -1.069525   -0.050660     0.0000    0.0000    0.5044    0.0000
  -31.0480     3.0281    -3.262    0.272005    0.000000    0.015510   -1.517421   -0.078402     0.0000    0.0000    0.5242    0.7315
  -30.6223     3.1176    -2.102    0.352693    0.000000    0.012951   -1.805055   -0.088944     0.0000    0.0000    0.4999    9.2940
  -29.9875     3.2511    -1.419    0.410935    0.000000    0.010180   -1.978181   -0.097156     0.0000    0.0000    0.4844   45.5330
  -29.1479     3.4276    -1.036    0.452766    0.000000    0.008190   -2.028348   -0.102434     0.0000    0.0000    0.4736   145.9078
  -28.1091     3.6459    -0.816    0.482444    0.000000    0.006876   -1.981620   -0.105487     0.0000    0.0000    0.4655   366.1008
  -26.8783     3.9047    -0.695    0.503193    0.000000    0.006103   -1.869737   -0.107094     0.0000    0.0000    0.4595   782.8027
  -25.4639     4.2020    -0.637    0.517381    0.000000    0.005758   -1.719436   -0.107860     0.0000    0.0000    0.4551   1494.7961
  -23.8756     4.5359    -0.624    0.526601    0.000000    0.005732   -1.550144   -0.108154     0.0000    0.0000    0.4521   2623.2239
  -22.1241     4.9041    -0.639    0.531861    0.000000    0.005935   -1.375038   -0.108191     0.0000    0.0000    0.4502   4310.7295
  -20.2216     5.3040    -0.675    0.533776    0.000000    0.006293   -1.202666   -0.108084     0.0000    0.0000    0.4494   6719.1144
  -18.1809     5.7330    -0.726    0.532691    0.000000    0.006748   -1.038355   -0.107895     0.0000    0.0000    0.4496   10025.2192
  -16.0160     6.1881    -0.786    0.528788    0.000000    0.007258   -0.885235   -0.107662     0.0000    0.0000    0.4509   14414.8488
  -13.7417     6.6662    -0.854    0.522112    0.000000    0.007785   -0.744970   -0.107417     0.0000    0.0000    0.4532   20074.7495
  -11.3735     7.1641    -0.926    0.512578    0.000000    0.008289   -0.618259   -0.107195     0.0000    0.0000    0.4569   27182.7586
   -8.9277     7.6782    -0.998    0.499956    0.000000    0.008721   -0.505252   -0.107074     0.0000    0.0000    0.4623   35896.3988
   -6.4208     8.2052    -1.063    0.483812    0.000000    0.008998   -0.405879   -0.107252     0.0000    0.0000    0.4702   46340.2846
   -3.8701     8.7414    -1.104    0.463326    0.000000    0.008957   -0.320325   -0.108255     0.0000    0.0000    0.4826   58592.7140
   -1.2930     9.2832    -1.040    0.435269    0.000000    0.007993   -0.250225   -0.112094     0.0000    0.0000    0.5057   72671.4600
    1.2930     9.2832    -1.040    0.435270    0.000000    0.007993   -0.250226   -0.112094     0.0000    0.0000    0.5057   72671.4276
    3.8701     8.7414    -1.104    0.463327    0.000000    0.008957   -0.320325   -0.108255     0.0000    0.0000    0.4826   58592.6825
    6.4208     8.2052    -1.063    0.483812    0.000000    0.008998   -0.405879   -0.107252     0.0000    0.0000    0.4702   46340.2550
    8.9277     7.6782    -0.998    0.499956    0.000000    0.008721   -0.505252   -0.107074     0.0000    0.0000    0.4623   35896.3717
   11.3735     7.1641    -0.926    0.512578    0.000000    0.008289   -0.618259   -0.107195     0.0000    0.0000    0.4569   27182.7343
   13.7417     6.6662    -0.854    0.522112    0.000000    0.007785   -0.744970   -0.107417     0.0000    0.0000    0.4532   20074.7281
   16.0160     6.1881    -0.786    0.528788    0.000000    0.007258   -0.885235   -0.107662     0.0000    0.0000    0.4509   14414.8303
   18.1809     5.7330    -0.726    0.532691    0.000000    0.006748   -1.038355   -0.107895     0.0000    0.0000    0.4496   10025.2036
   20.2216     5.3040    -0.675    0.533776    0.000000    0.006293   -1.202666   -0.108084     0.0000    0.0000    0.4494   6719.1016
   22.1241     4.9041    -0.639    0.531862    0.000000    0.005935   -1.375038   -0.108190     0.0000    0.0000    0.4502   4310.7193
   23.8756     4.5359    -0.624    0.526601    0.000000    0.005732   -1.550143   -0.108154     0.0000    0.0000    0.4521   2623.2162
   25.4639     4.2020    -0.637    0.517381    0.000000    0.005758   -1.719435   -0.107860     0.0000    0.0000    0.4551   1494.7907
   26.8783     3.9047    -0.695    0.503193    0.000000    0.006103   -1.869733   -0.107094     0.0000    0.0000    0.4595   782.7992
   28.1091     3.6459    -0.816    0.482443    0.000000    0.006876   -1.981607   -0.105485     0.0000    0.0000    0.4655   366.0989
   29.1479     3.4276    -1.036    0.452765    0.000000    0.008190   -2.028308   -0.102430     0.0000    0.0000    0.4735   145.9071
   29.9875     3.2511    -1.419    0.410933    0.000000    0.010180   -1.978060   -0.097147     0.0000    0.0000    0.4844   45.5328
   30.6223     3.1176    -2.102    0.352691    0.000000    0.012951   -1.804572   -0.088935     0.0000    0.0000    0.4999    9.2940
   31.0480     3.0281    -3.262    0.272004    0.000000    0.015510   -1.516012   -0.078410     0.0000    0.0000    0.5246    0.7315
   31.2615     2.9832    -4.990    0.169574    0.000000    0.014814   -1.067721   -0.050663     0.0000    0.0000    0.5052    0.0000


Main Wing Cp Coefficients
 Panel     CtrlPt.x        CtrlPt.y        CtrlPt.z       Nx      Ny       Nz        Area       Cp
Main WingCp Coefficients
Strip 1
  13       1.758e+01      -3.115e+01       2.686e+00          -0.040          -0.107          -0.993       4.645e-03         -0.0824
  14       1.749e+01      -3.114e+01       2.700e+00          -0.194          -0.145          -0.970       1.394e-02          0.0266
  15       1.732e+01      -3.114e+01       2.717e+00          -0.040          -0.105          -0.994       2.188e-02          0.1061
  16       1.709e+01      -3.114e+01       2.704e+00           0.123          -0.058          -0.991       2.904e-02          0.1221
  17       1.679e+01      -3.115e+01       2.653e+00           0.210          -0.029          -0.977       3.492e-02          0.0679
  18       1.646e+01      -3.115e+01       2.586e+00           0.187          -0.036          -0.982       3.812e-02         -0.0532
  19       1.611e+01      -3.116e+01       2.538e+00           0.086          -0.071          -0.994       3.868e-02         -0.1401
  20       1.575e+01      -3.116e+01       2.520e+00           0.010          -0.099          -0.995       3.742e-02         -0.1513
  21       1.542e+01      -3.116e+01       2.526e+00          -0.045          -0.120          -0.992       3.417e-02         -0.1485
  22       1.512e+01      -3.116e+01       2.546e+00          -0.098          -0.140          -0.985       2.901e-02         -0.1554
  23       1.489e+01      -3.116e+01       2.578e+00          -0.178          -0.174          -0.969       2.232e-02         -0.1790
  24       1.472e+01      -3.115e+01       2.622e+00          -0.374          -0.255          -0.892       1.499e-02         -0.1236
  25       1.464e+01      -3.115e+01       2.687e+00          -0.806          -0.414          -0.422       1.016e-02          0.5279
  26       1.464e+01      -3.114e+01       2.763e+00          -0.806          -0.337           0.487       1.016e-02          0.1498
  27       1.472e+01      -3.113e+01       2.827e+00          -0.375          -0.101           0.922       1.498e-02         -0.6695
  28       1.489e+01      -3.113e+01       2.872e+00          -0.177          -0.005           0.984       2.226e-02         -0.4664
  29       1.512e+01      -3.113e+01       2.903e+00          -0.098           0.031           0.995       2.892e-02         -0.3297
  30       1.542e+01      -3.113e+01       2.923e+00          -0.044           0.055           0.998       3.405e-02         -0.2744
  31       1.575e+01      -3.112e+01       2.931e+00          -0.002           0.073           0.997       3.728e-02         -0.2427
  32       1.611e+01      -3.113e+01       2.925e+00           0.035           0.088           0.995       3.842e-02         -0.2240
  33       1.646e+01      -3.113e+01       2.905e+00           0.078           0.104           0.992       3.741e-02         -0.2121
  34       1.679e+01      -3.113e+01       2.870e+00           0.131           0.122           0.984       3.434e-02         -0.1984
  35       1.709e+01      -3.113e+01       2.823e+00           0.189           0.140           0.972       2.935e-02         -0.1928
  36       1.732e+01      -3.114e+01       2.772e+00           0.241           0.154           0.958       2.257e-02         -0.2030
  37       1.749e+01      -3.114e+01       2.728e+00           0.281           0.164           0.946       1.427e-02         -0.2376
  38       1.758e+01      -3.114e+01       2.698e+00           0.483           0.208           0.851       5.361e-03         -0.0717
Strip 2
  39       1.752e+01      -3.093e+01       2.666e+00          -0.041          -0.108          -0.993       1.411e-02          0.0121
  40       1.743e+01      -3.093e+01       2.679e+00          -0.194          -0.145          -0.970       4.236e-02          0.1696
  41       1.727e+01      -3.093e+01       2.696e+00          -0.041          -0.106          -0.994       6.649e-02          0.2742
  42       1.702e+01      -3.093e+01       2.684e+00           0.122          -0.058          -0.991       8.822e-02          0.2588
  43       1.673e+01      -3.094e+01       2.633e+00           0.209          -0.029          -0.977       1.061e-01          0.1446
  44       1.639e+01      -3.094e+01       2.565e+00           0.186          -0.036          -0.982       1.158e-01         -0.0430
  45       1.603e+01      -3.095e+01       2.516e+00           0.085          -0.072          -0.994       1.175e-01         -0.1726
  46       1.567e+01      -3.095e+01       2.498e+00           0.010          -0.099          -0.995       1.137e-01         -0.1924
  47       1.533e+01      -3.095e+01       2.504e+00          -0.046          -0.120          -0.992       1.038e-01         -0.1881
  48       1.503e+01      -3.095e+01       2.525e+00          -0.099          -0.141          -0.985       8.817e-02         -0.1926
  49       1.479e+01      -3.094e+01       2.557e+00          -0.179          -0.174          -0.968       6.784e-02         -0.2047
  50       1.462e+01      -3.094e+01       2.603e+00          -0.374          -0.255          -0.892       4.557e-02         -0.0966
  51       1.454e+01      -3.093e+01       2.668e+00          -0.806          -0.414          -0.423       3.088e-02          0.6198
  52       1.454e+01      -3.093e+01       2.745e+00          -0.806          -0.337           0.487       3.084e-02          0.1252
  53       1.462e+01      -3.092e+01       2.811e+00          -0.374          -0.101           0.922       4.549e-02         -0.8119
  54       1.479e+01      -3.092e+01       2.856e+00          -0.176          -0.005           0.984       6.761e-02         -0.5948
  55       1.503e+01      -3.091e+01       2.888e+00          -0.097           0.032           0.995       8.786e-02         -0.4306
  56       1.533e+01      -3.091e+01       2.908e+00          -0.043           0.055           0.998       1.034e-01         -0.3537
  57       1.567e+01      -3.091e+01       2.915e+00          -0.001           0.073           0.997       1.133e-01         -0.3103
  58       1.603e+01      -3.091e+01       2.909e+00           0.036           0.088           0.995       1.167e-01         -0.2895
  59       1.639e+01      -3.091e+01       2.888e+00           0.079           0.104           0.991       1.137e-01         -0.2822
  60       1.673e+01      -3.092e+01       2.853e+00           0.132           0.122           0.984       1.044e-01         -0.2692
  61       1.702e+01      -3.092e+01       2.805e+00           0.190           0.140           0.972       8.920e-02         -0.2430
  62       1.727e+01      -3.093e+01       2.753e+00           0.242           0.154           0.958       6.860e-02         -0.1984
  63       1.743e+01      -3.093e+01       2.708e+00           0.281           0.164           0.946       4.337e-02         -0.1745
  64       1.752e+01      -3.093e+01       2.677e+00           0.483           0.208           0.850       1.630e-02          0.0142
Strip 3
  65       1.741e+01      -3.051e+01       2.624e+00          -0.042          -0.108          -0.993       2.411e-02          0.0943
  66       1.732e+01      -3.051e+01       2.638e+00          -0.195          -0.146          -0.970       7.239e-02          0.2658
  67       1.715e+01      -3.051e+01       2.656e+00          -0.042          -0.106          -0.993       1.136e-01          0.3642
  68       1.690e+01      -3.051e+01       2.644e+00           0.121          -0.058          -0.991       1.506e-01          0.3222
  69       1.659e+01      -3.051e+01       2.591e+00           0.208          -0.030          -0.978       1.811e-01          0.1780
  70       1.624e+01      -3.052e+01       2.522e+00           0.185          -0.037          -0.982       1.977e-01         -0.0384
  71       1.587e+01      -3.052e+01       2.472e+00           0.084          -0.072          -0.994       2.007e-01         -0.1904
  72       1.550e+01      -3.052e+01       2.454e+00           0.008          -0.100          -0.995       1.942e-01         -0.2163
  73       1.515e+01      -3.052e+01       2.461e+00          -0.047          -0.121          -0.992       1.774e-01         -0.2038
  74       1.485e+01      -3.052e+01       2.483e+00          -0.100          -0.141          -0.985       1.507e-01         -0.1857
  75       1.460e+01      -3.052e+01       2.516e+00          -0.180          -0.174          -0.968       1.159e-01         -0.1597
  76       1.443e+01      -3.051e+01       2.563e+00          -0.375          -0.256          -0.891       7.792e-02         -0.0021
  77       1.434e+01      -3.051e+01       2.631e+00          -0.806          -0.414          -0.423       5.280e-02          0.7175
  78       1.434e+01      -3.050e+01       2.710e+00          -0.806          -0.337           0.486       5.261e-02          0.1139
  79       1.443e+01      -3.050e+01       2.778e+00          -0.374          -0.101           0.922       7.762e-02         -0.8952
  80       1.460e+01      -3.049e+01       2.824e+00          -0.175          -0.004           0.985       1.154e-01         -0.6780
  81       1.485e+01      -3.049e+01       2.856e+00          -0.096           0.032           0.995       1.500e-01         -0.5193
  82       1.515e+01      -3.049e+01       2.877e+00          -0.042           0.056           0.998       1.766e-01         -0.4407
  83       1.550e+01      -3.049e+01       2.884e+00           0.000           0.074           0.997       1.935e-01         -0.3894
  84       1.587e+01      -3.049e+01       2.877e+00           0.037           0.089           0.995       1.994e-01         -0.3604
  85       1.624e+01      -3.049e+01       2.855e+00           0.080           0.105           0.991       1.942e-01         -0.3423
  86       1.659e+01      -3.049e+01       2.818e+00           0.133           0.123           0.983       1.783e-01         -0.3077
  87       1.690e+01      -3.050e+01       2.769e+00           0.191           0.140           0.972       1.524e-01         -0.2450
  88       1.715e+01      -3.050e+01       2.714e+00           0.243           0.154           0.958       1.173e-01         -0.1550
  89       1.732e+01      -3.051e+01       2.668e+00           0.282           0.164           0.945       7.412e-02         -0.0887
  90       1.741e+01      -3.051e+01       2.636e+00           0.484           0.208           0.850       2.786e-02          0.1072
Strip 4
  91       1.725e+01      -2.988e+01       2.562e+00          -0.044          -0.108          -0.993       3.496e-02          0.1127
  92       1.715e+01      -2.988e+01       2.577e+00          -0.197          -0.146          -0.969       1.050e-01          0.2884
  93       1.697e+01      -2.987e+01       2.596e+00          -0.044          -0.106          -0.993       1.647e-01          0.3878
  94       1.671e+01      -2.988e+01       2.584e+00           0.119          -0.059          -0.991       2.183e-01          0.3420
  95       1.639e+01      -2.988e+01       2.530e+00           0.206          -0.030          -0.978       2.624e-01          0.1909
  96       1.603e+01      -2.988e+01       2.458e+00           0.183          -0.037          -0.982       2.864e-01         -0.0339
  97       1.564e+01      -2.989e+01       2.406e+00           0.082          -0.073          -0.994       2.909e-01         -0.1915
  98       1.526e+01      -2.989e+01       2.389e+00           0.007          -0.100          -0.995       2.816e-01         -0.2153
  99       1.489e+01      -2.989e+01       2.396e+00          -0.049          -0.121          -0.991       2.572e-01         -0.1927
 100       1.457e+01      -2.989e+01       2.420e+00          -0.102          -0.142          -0.985       2.185e-01         -0.1602
 101       1.432e+01      -2.989e+01       2.456e+00          -0.182          -0.175          -0.968       1.683e-01         -0.1185
 102       1.414e+01      -2.988e+01       2.505e+00          -0.376          -0.256          -0.891       1.132e-01          0.0590
 103       1.404e+01      -2.988e+01       2.575e+00          -0.805          -0.414          -0.425       7.669e-02          0.7520
 104       1.404e+01      -2.987e+01       2.658e+00          -0.807          -0.337           0.485       7.615e-02          0.0645
 105       1.414e+01      -2.986e+01       2.728e+00          -0.373          -0.100           0.923       1.124e-01         -0.9733
 106       1.432e+01      -2.986e+01       2.776e+00          -0.173          -0.004           0.985       1.672e-01         -0.7347
 107       1.457e+01      -2.986e+01       2.809e+00          -0.094           0.033           0.995       2.174e-01         -0.5729
 108       1.489e+01      -2.986e+01       2.830e+00          -0.040           0.057           0.998       2.561e-01         -0.4982
 109       1.526e+01      -2.986e+01       2.837e+00           0.002           0.075           0.997       2.805e-01         -0.4485
 110       1.564e+01      -2.986e+01       2.829e+00           0.039           0.090           0.995       2.892e-01         -0.4166
 111       1.603e+01      -2.986e+01       2.805e+00           0.082           0.105           0.991       2.817e-01         -0.3914
 112       1.639e+01      -2.986e+01       2.766e+00           0.135           0.123           0.983       2.587e-01         -0.3453
 113       1.671e+01      -2.987e+01       2.714e+00           0.193           0.141           0.971       2.212e-01         -0.2672
 114       1.697e+01      -2.987e+01       2.657e+00           0.244           0.155           0.957       1.701e-01         -0.1608
 115       1.715e+01      -2.987e+01       2.608e+00           0.284           0.165           0.945       1.076e-01         -0.0794
 116       1.725e+01      -2.988e+01       2.575e+00           0.485           0.208           0.849       4.046e-02          0.1198
Strip 5
 117       1.703e+01      -2.904e+01       2.481e+00          -0.046          -0.109          -0.993       4.697e-02          0.1158
 118       1.693e+01      -2.904e+01       2.497e+00          -0.199          -0.146          -0.969       1.412e-01          0.2944
 119       1.674e+01      -2.904e+01       2.517e+00          -0.046          -0.107          -0.993       2.213e-01          0.3952
 120       1.647e+01      -2.904e+01       2.504e+00           0.117          -0.060          -0.991       2.931e-01          0.3494
 121       1.613e+01      -2.904e+01       2.448e+00           0.204          -0.031          -0.978       3.521e-01          0.1975
 122       1.575e+01      -2.905e+01       2.373e+00           0.181          -0.038          -0.983       3.844e-01         -0.0276
 123       1.534e+01      -2.905e+01       2.320e+00           0.080          -0.074          -0.994       3.906e-01         -0.1835
 124       1.493e+01      -2.905e+01       2.302e+00           0.004          -0.101          -0.995       3.782e-01         -0.2035
 125       1.455e+01      -2.905e+01       2.311e+00          -0.052          -0.122          -0.991       3.456e-01         -0.1756
 126       1.421e+01      -2.905e+01       2.337e+00          -0.104          -0.143          -0.984       2.937e-01         -0.1371
 127       1.394e+01      -2.905e+01       2.375e+00          -0.184          -0.176          -0.967       2.262e-01         -0.0873
 128       1.375e+01      -2.905e+01       2.427e+00          -0.377          -0.257          -0.890       1.523e-01          0.1036
 129       1.365e+01      -2.904e+01       2.502e+00          -0.805          -0.414          -0.426       1.032e-01          0.7700
 130       1.365e+01      -2.903e+01       2.590e+00          -0.807          -0.338           0.484       1.021e-01          0.0130
 131       1.375e+01      -2.903e+01       2.663e+00          -0.371          -0.099           0.923       1.507e-01         -1.0443
 132       1.394e+01      -2.903e+01       2.713e+00          -0.171          -0.003           0.985       2.244e-01         -0.7801
 133       1.421e+01      -2.902e+01       2.748e+00          -0.092           0.034           0.995       2.919e-01         -0.6098
 134       1.455e+01      -2.902e+01       2.769e+00          -0.038           0.058           0.998       3.439e-01         -0.5340
 135       1.493e+01      -2.902e+01       2.775e+00           0.004           0.076           0.997       3.768e-01         -0.4847
 136       1.534e+01      -2.902e+01       2.765e+00           0.041           0.090           0.995       3.885e-01         -0.4523
 137       1.575e+01      -2.902e+01       2.740e+00           0.084           0.106           0.991       3.785e-01         -0.4241
 138       1.613e+01      -2.903e+01       2.698e+00           0.137           0.124           0.983       3.477e-01         -0.3718
 139       1.647e+01      -2.903e+01       2.642e+00           0.195           0.141           0.971       2.973e-01         -0.2854
 140       1.674e+01      -2.903e+01       2.581e+00           0.246           0.155           0.957       2.287e-01         -0.1708
 141       1.693e+01      -2.904e+01       2.529e+00           0.286           0.165           0.944       1.446e-01         -0.0825
 142       1.703e+01      -2.904e+01       2.494e+00           0.486           0.209           0.849       5.443e-02          0.1186
Strip 6
 143       1.676e+01      -2.801e+01       2.380e+00          -0.049          -0.110          -0.993       6.038e-02          0.1158
 144       1.665e+01      -2.800e+01       2.397e+00          -0.201          -0.147          -0.968       1.816e-01          0.2966
 145       1.645e+01      -2.800e+01       2.419e+00          -0.049          -0.108          -0.993       2.845e-01          0.3987
 146       1.616e+01      -2.800e+01       2.406e+00           0.115          -0.060          -0.992       3.765e-01          0.3536
 147       1.580e+01      -2.801e+01       2.347e+00           0.202          -0.032          -0.979       4.521e-01          0.2024
 148       1.540e+01      -2.801e+01       2.269e+00           0.178          -0.039          -0.983       4.936e-01         -0.0212
 149       1.496e+01      -2.802e+01       2.213e+00           0.078          -0.075          -0.994       5.018e-01         -0.1745
 150       1.453e+01      -2.802e+01       2.195e+00           0.002          -0.102          -0.995       4.861e-01         -0.1917
 151       1.412e+01      -2.802e+01       2.206e+00          -0.054          -0.123          -0.991       4.443e-01         -0.1609
 152       1.376e+01      -2.802e+01       2.234e+00          -0.106          -0.144          -0.984       3.777e-01         -0.1190
 153       1.347e+01      -2.801e+01       2.275e+00          -0.186          -0.177          -0.966       2.911e-01         -0.0633
 154       1.327e+01      -2.801e+01       2.332e+00          -0.379          -0.257          -0.889       1.961e-01          0.1373
 155       1.317e+01      -2.801e+01       2.411e+00          -0.804          -0.413          -0.427       1.330e-01          0.7806
 156       1.317e+01      -2.800e+01       2.504e+00          -0.808          -0.338           0.482       1.309e-01         -0.0322
 157       1.327e+01      -2.799e+01       2.582e+00          -0.370          -0.099           0.924       1.932e-01         -1.1045
 158       1.347e+01      -2.799e+01       2.635e+00          -0.169          -0.002           0.986       2.881e-01         -0.8159
 159       1.376e+01      -2.799e+01       2.671e+00          -0.089           0.035           0.995       3.750e-01         -0.6365
 160       1.412e+01      -2.799e+01       2.693e+00          -0.035           0.059           0.998       4.419e-01         -0.5574
 161       1.453e+01      -2.799e+01       2.698e+00           0.007           0.077           0.997       4.843e-01         -0.5068
 162       1.496e+01      -2.799e+01       2.687e+00           0.044           0.091           0.995       4.995e-01         -0.4733
 163       1.540e+01      -2.799e+01       2.659e+00           0.086           0.107           0.991       4.867e-01         -0.4433
 164       1.580e+01      -2.799e+01       2.613e+00           0.139           0.125           0.982       4.471e-01         -0.3877
 165       1.616e+01      -2.799e+01       2.552e+00           0.197           0.142           0.970       3.824e-01         -0.2969
 166       1.645e+01      -2.800e+01       2.487e+00           0.248           0.156           0.956       2.943e-01         -0.1779
 167       1.665e+01      -2.800e+01       2.432e+00           0.288           0.166           0.943       1.861e-01         -0.0860
 168       1.676e+01      -2.800e+01       2.393e+00           0.487           0.209           0.848       7.008e-02          0.1164
Strip 7
 169       1.644e+01      -2.678e+01       2.260e+00          -0.051          -0.110          -0.993       7.538e-02          0.1153
 170       1.633e+01      -2.678e+01       2.279e+00          -0.204          -0.148          -0.968       2.269e-01          0.2979
 171       1.611e+01      -2.678e+01       2.303e+00          -0.052          -0.108          -0.993       3.552e-01          0.4008
 172       1.580e+01      -2.678e+01       2.290e+00           0.112          -0.061          -0.992       4.697e-01          0.3564
 173       1.542e+01      -2.678e+01       2.228e+00           0.200          -0.033          -0.979       5.638e-01          0.2060
 174       1.498e+01      -2.679e+01       2.145e+00           0.176          -0.040          -0.984       6.156e-01         -0.0162
 175       1.452e+01      -2.679e+01       2.086e+00           0.075          -0.075          -0.994       6.261e-01         -0.1673
 176       1.405e+01      -2.679e+01       2.069e+00          -0.001          -0.103          -0.995       6.067e-01         -0.1825
 177       1.362e+01      -2.679e+01       2.081e+00          -0.057          -0.124          -0.991       5.548e-01         -0.1497
 178       1.323e+01      -2.679e+01       2.112e+00          -0.109          -0.145          -0.983       4.718e-01         -0.1054
 179       1.292e+01      -2.679e+01       2.157e+00          -0.188          -0.178          -0.966       3.637e-01         -0.0453
 180       1.271e+01      -2.678e+01       2.218e+00          -0.380          -0.258          -0.888       2.453e-01          0.1624
 181       1.259e+01      -2.678e+01       2.303e+00          -0.803          -0.413          -0.429       1.663e-01          0.7872
 182       1.259e+01      -2.677e+01       2.404e+00          -0.809          -0.339           0.481       1.630e-01         -0.0684
 183       1.271e+01      -2.677e+01       2.487e+00          -0.368          -0.098           0.925       2.407e-01         -1.1532
 184       1.292e+01      -2.677e+01       2.543e+00          -0.166          -0.001           0.986       3.593e-01         -0.8434
 185       1.323e+01      -2.676e+01       2.580e+00          -0.087           0.036           0.996       4.678e-01         -0.6557
 186       1.362e+01      -2.676e+01       2.603e+00          -0.033           0.060           0.998       5.515e-01         -0.5731
 187       1.405e+01      -2.676e+01       2.607e+00           0.009           0.078           0.997       6.045e-01         -0.5207
 188       1.452e+01      -2.676e+01       2.594e+00           0.046           0.092           0.995       6.236e-01         -0.4859
 189       1.498e+01      -2.676e+01       2.563e+00           0.089           0.108           0.990       6.078e-01         -0.4542
 190       1.542e+01      -2.677e+01       2.513e+00           0.142           0.125           0.982       5.585e-01         -0.3964
 191       1.580e+01      -2.677e+01       2.447e+00           0.199           0.142           0.970       4.778e-01         -0.3032
 192       1.611e+01      -2.677e+01       2.376e+00           0.251           0.156           0.955       3.678e-01         -0.1819
 193       1.633e+01      -2.678e+01       2.316e+00           0.290           0.166           0.943       2.326e-01         -0.0880
 194       1.644e+01      -2.678e+01       2.274e+00           0.488           0.209           0.847       8.764e-02          0.1152
Strip 8
 195       1.607e+01      -2.537e+01       2.122e+00          -0.054          -0.111          -0.992       9.211e-02          0.1148
 196       1.595e+01      -2.537e+01       2.143e+00          -0.206          -0.148          -0.967       2.774e-01          0.2988
 197       1.572e+01      -2.537e+01       2.169e+00          -0.054          -0.109          -0.993       4.340e-01          0.4023
 198       1.539e+01      -2.537e+01       2.156e+00           0.110          -0.062          -0.992       5.735e-01          0.3585
 199       1.497e+01      -2.537e+01       2.090e+00           0.197          -0.033          -0.980       6.881e-01          0.2086
 200       1.450e+01      -2.538e+01       2.002e+00           0.174          -0.041          -0.984       7.513e-01         -0.0126
 201       1.400e+01      -2.538e+01       1.940e+00           0.073          -0.076          -0.994       7.645e-01         -0.1622
 202       1.351e+01      -2.538e+01       1.923e+00          -0.003          -0.104          -0.995       7.412e-01         -0.1759
 203       1.304e+01      -2.538e+01       1.937e+00          -0.059          -0.125          -0.990       6.780e-01         -0.1418
 204       1.262e+01      -2.538e+01       1.972e+00          -0.111          -0.146          -0.983       5.767e-01         -0.0957
 205       1.229e+01      -2.538e+01       2.021e+00          -0.191          -0.179          -0.965       4.448e-01         -0.0323
 206       1.205e+01      -2.537e+01       2.087e+00          -0.382          -0.258          -0.887       3.003e-01          0.1804
 207       1.193e+01      -2.537e+01       2.180e+00          -0.803          -0.413          -0.430       2.037e-01          0.7911
 208       1.193e+01      -2.536e+01       2.288e+00          -0.809          -0.339           0.479       1.987e-01         -0.0953
 209       1.205e+01      -2.536e+01       2.377e+00          -0.366          -0.097           0.925       2.934e-01         -1.1906
 210       1.229e+01      -2.536e+01       2.436e+00          -0.164           0.001           0.986       4.385e-01         -0.8636
 211       1.262e+01      -2.535e+01       2.476e+00          -0.084           0.037           0.996       5.712e-01         -0.6693
 212       1.304e+01      -2.535e+01       2.499e+00          -0.030           0.061           0.998       6.736e-01         -0.5837
 213       1.351e+01      -2.535e+01       2.503e+00           0.012           0.079           0.997       7.386e-01         -0.5295
 214       1.400e+01      -2.535e+01       2.488e+00           0.049           0.093           0.994       7.620e-01         -0.4933
 215       1.450e+01      -2.535e+01       2.453e+00           0.091           0.109           0.990       7.428e-01         -0.4604
 216       1.497e+01      -2.536e+01       2.397e+00           0.144           0.126           0.981       6.827e-01         -0.4012
 217       1.539e+01      -2.536e+01       2.325e+00           0.202           0.143           0.969       5.842e-01         -0.3065
 218       1.572e+01      -2.536e+01       2.248e+00           0.253           0.157           0.955       4.498e-01         -0.1838
 219       1.595e+01      -2.537e+01       2.183e+00           0.292           0.167           0.942       2.845e-01         -0.0888
 220       1.607e+01      -2.537e+01       2.138e+00           0.490           0.209           0.846       1.073e-01          0.1150
Strip 9
 221       1.566e+01      -2.379e+01       1.967e+00          -0.056          -0.112          -0.992       1.106e-01          0.1143
 222       1.553e+01      -2.379e+01       1.990e+00          -0.208          -0.149          -0.967       3.334e-01          0.2994
 223       1.528e+01      -2.379e+01       2.020e+00          -0.057          -0.110          -0.992       5.212e-01          0.4032
 224       1.492e+01      -2.379e+01       2.006e+00           0.107          -0.063          -0.992       6.882e-01          0.3598
 225       1.447e+01      -2.379e+01       1.936e+00           0.195          -0.034          -0.980       8.254e-01          0.2103
 226       1.397e+01      -2.379e+01       1.842e+00           0.171          -0.041          -0.984       9.013e-01         -0.0103
 227       1.343e+01      -2.380e+01       1.777e+00           0.070          -0.077          -0.995       9.176e-01         -0.1589
 228       1.289e+01      -2.380e+01       1.759e+00          -0.006          -0.105          -0.994       8.900e-01         -0.1716
 229       1.238e+01      -2.380e+01       1.776e+00          -0.062          -0.126          -0.990       8.144e-01         -0.1365
 230       1.194e+01      -2.380e+01       1.814e+00          -0.114          -0.147          -0.983       6.929e-01         -0.0891
 231       1.158e+01      -2.379e+01       1.869e+00          -0.193          -0.180          -0.965       5.347e-01         -0.0234
 232       1.132e+01      -2.379e+01       1.941e+00          -0.383          -0.259          -0.887       3.614e-01          0.1924
 233       1.119e+01      -2.379e+01       2.041e+00          -0.802          -0.413          -0.432       2.451e-01          0.7934
 234       1.119e+01      -2.378e+01       2.157e+00          -0.810          -0.340           0.478       2.380e-01         -0.1133
 235       1.132e+01      -2.378e+01       2.253e+00          -0.365          -0.096           0.926       3.516e-01         -1.2176
 236       1.158e+01      -2.377e+01       2.317e+00          -0.162           0.002           0.987       5.260e-01         -0.8775
 237       1.194e+01      -2.377e+01       2.359e+00          -0.082           0.038           0.996       6.855e-01         -0.6783
 238       1.238e+01      -2.377e+01       2.383e+00          -0.028           0.062           0.998       8.086e-01         -0.5905
 239       1.289e+01      -2.377e+01       2.386e+00           0.014           0.079           0.997       8.868e-01         -0.5349
 240       1.343e+01      -2.377e+01       2.368e+00           0.051           0.094           0.994       9.151e-01         -0.4977
 241       1.397e+01      -2.377e+01       2.329e+00           0.094           0.109           0.990       8.922e-01         -0.4638
 242       1.447e+01      -2.378e+01       2.267e+00           0.147           0.127           0.981       8.203e-01         -0.4036
 243       1.492e+01      -2.378e+01       2.189e+00           0.204           0.144           0.968       7.021e-01         -0.3080
 244       1.528e+01      -2.378e+01       2.105e+00           0.255           0.157           0.954       5.406e-01         -0.1845
 245       1.553e+01      -2.378e+01       2.033e+00           0.294           0.167           0.941       3.420e-01         -0.0888
 246       1.566e+01      -2.379e+01       1.984e+00           0.491           0.210           0.846       1.290e-01          0.1153
Strip 10
 247       1.521e+01      -2.204e+01       1.797e+00          -0.058          -0.112          -0.992       1.309e-01          0.1137
 248       1.507e+01      -2.204e+01       1.822e+00          -0.210          -0.149          -0.966       3.947e-01          0.2998
 249       1.480e+01      -2.204e+01       1.854e+00          -0.059          -0.110          -0.992       6.166e-01          0.4039
 250       1.441e+01      -2.204e+01       1.841e+00           0.105          -0.063          -0.992       8.137e-01          0.3607
 251       1.393e+01      -2.204e+01       1.766e+00           0.193          -0.035          -0.981       9.755e-01          0.2113
 252       1.338e+01      -2.205e+01       1.666e+00           0.169          -0.042          -0.985       1.065e+00         -0.0091
 253       1.279e+01      -2.205e+01       1.596e+00           0.068          -0.078          -0.995       1.085e+00         -0.1571
 254       1.221e+01      -2.205e+01       1.579e+00          -0.008          -0.106          -0.994       1.053e+00         -0.1691
 255       1.166e+01      -2.205e+01       1.598e+00          -0.064          -0.127          -0.990       9.636e-01         -0.1333
 256       1.118e+01      -2.205e+01       1.641e+00          -0.116          -0.148          -0.982       8.201e-01         -0.0852
 257       1.079e+01      -2.205e+01       1.700e+00          -0.195          -0.181          -0.964       6.332e-01         -0.0183
 258       1.052e+01      -2.205e+01       1.779e+00          -0.384          -0.259          -0.886       4.283e-01          0.1994
 259       1.038e+01      -2.204e+01       1.888e+00          -0.801          -0.413          -0.433       2.905e-01          0.7944
 260       1.038e+01      -2.204e+01       2.014e+00          -0.811          -0.340           0.477       2.809e-01         -0.1229
 261       1.052e+01      -2.203e+01       2.117e+00          -0.363          -0.096           0.927       4.151e-01         -1.2350
 262       1.079e+01      -2.203e+01       2.186e+00          -0.160           0.003           0.987       6.216e-01         -0.8862
 263       1.118e+01      -2.203e+01       2.230e+00          -0.079           0.039           0.996       8.105e-01         -0.6836
 264       1.166e+01      -2.203e+01       2.255e+00          -0.025           0.063           0.998       9.563e-01         -0.5942
 265       1.221e+01      -2.203e+01       2.256e+00           0.017           0.080           0.997       1.049e+00         -0.5378
 266       1.279e+01      -2.203e+01       2.236e+00           0.054           0.095           0.994       1.083e+00         -0.4999
 267       1.338e+01      -2.203e+01       2.192e+00           0.096           0.110           0.989       1.056e+00         -0.4653
 268       1.393e+01      -2.203e+01       2.125e+00           0.149           0.127           0.981       9.709e-01         -0.4045
 269       1.441e+01      -2.203e+01       2.038e+00           0.206           0.144           0.968       8.312e-01         -0.3084
 270       1.480e+01      -2.204e+01       1.946e+00           0.257           0.158           0.953       6.401e-01         -0.1846
 271       1.507e+01      -2.204e+01       1.869e+00           0.296           0.167           0.940       4.050e-01         -0.0885
 272       1.521e+01      -2.204e+01       1.815e+00           0.492           0.210           0.845       1.529e-01          0.1157
Strip 11
 273       1.472e+01      -2.015e+01       1.612e+00          -0.061          -0.113          -0.992       1.528e-01          0.1130
 274       1.457e+01      -2.015e+01       1.639e+00          -0.212          -0.150          -0.966       4.610e-01          0.3000
 275       1.427e+01      -2.015e+01       1.675e+00          -0.061          -0.111          -0.992       7.199e-01          0.4042
 276       1.385e+01      -2.015e+01       1.661e+00           0.103          -0.064          -0.993       9.493e-01          0.3611
 277       1.333e+01      -2.015e+01       1.582e+00           0.191          -0.035          -0.981       1.138e+00          0.2118
 278       1.273e+01      -2.015e+01       1.474e+00           0.167          -0.043          -0.985       1.243e+00         -0.0087
 279       1.210e+01      -2.016e+01       1.400e+00           0.066          -0.079          -0.995       1.266e+00         -0.1564
 280       1.147e+01      -2.016e+01       1.383e+00          -0.010          -0.107          -0.994       1.229e+00         -0.1681
 281       1.088e+01      -2.016e+01       1.405e+00          -0.066          -0.128          -0.990       1.125e+00         -0.1321
 282       1.036e+01      -2.015e+01       1.452e+00          -0.118          -0.149          -0.982       9.578e-01         -0.0836
 283       9.939e+00      -2.015e+01       1.518e+00          -0.197          -0.181          -0.963       7.398e-01         -0.0162
 284       9.644e+00      -2.015e+01       1.604e+00          -0.386          -0.260          -0.885       5.008e-01          0.2017
 285       9.492e+00      -2.015e+01       1.722e+00          -0.801          -0.413          -0.434       3.398e-01          0.7944
 286       9.492e+00      -2.014e+01       1.858e+00          -0.811          -0.340           0.475       3.273e-01         -0.1247
 287       9.644e+00      -2.014e+01       1.970e+00          -0.362          -0.095           0.927       4.836e-01         -1.2432
 288       9.939e+00      -2.014e+01       2.043e+00          -0.158           0.004           0.988       7.249e-01         -0.8896
 289       1.036e+01      -2.013e+01       2.090e+00          -0.077           0.040           0.996       9.456e-01         -0.6855
 290       1.088e+01      -2.013e+01       2.115e+00          -0.023           0.064           0.998       1.116e+00         -0.5954
 291       1.147e+01      -2.013e+01       2.116e+00           0.019           0.081           0.997       1.224e+00         -0.5386
 292       1.210e+01      -2.013e+01       2.092e+00           0.056           0.096           0.994       1.264e+00         -0.5004
 293       1.273e+01      -2.013e+01       2.043e+00           0.098           0.111           0.989       1.233e+00         -0.4655
 294       1.333e+01      -2.014e+01       1.969e+00           0.151           0.128           0.980       1.134e+00         -0.4045
 295       1.385e+01      -2.014e+01       1.875e+00           0.208           0.145           0.967       9.710e-01         -0.3082
 296       1.427e+01      -2.014e+01       1.774e+00           0.259           0.158           0.953       7.479e-01         -0.1841
 297       1.457e+01      -2.014e+01       1.690e+00           0.297           0.168           0.940       4.732e-01         -0.0880
 298       1.472e+01      -2.015e+01       1.632e+00           0.493           0.210           0.844       1.787e-01          0.1161
Strip 12
 299       1.419e+01      -1.811e+01       1.413e+00          -0.063          -0.113          -0.992       1.762e-01          0.1122
 300       1.402e+01      -1.811e+01       1.443e+00          -0.214          -0.150          -0.965       5.318e-01          0.3001
 301       1.371e+01      -1.811e+01       1.482e+00          -0.063          -0.111          -0.992       8.300e-01          0.4044
 302       1.325e+01      -1.811e+01       1.468e+00           0.101          -0.064          -0.993       1.094e+00          0.3613
 303       1.269e+01      -1.812e+01       1.383e+00           0.189          -0.036          -0.981       1.311e+00          0.2118
 304       1.205e+01      -1.812e+01       1.268e+00           0.165          -0.044          -0.985       1.431e+00         -0.0091
 305       1.137e+01      -1.812e+01       1.190e+00           0.064          -0.080          -0.995       1.459e+00         -0.1569
 306       1.068e+01      -1.812e+01       1.172e+00          -0.012          -0.108          -0.994       1.417e+00         -0.1685
 307       1.004e+01      -1.812e+01       1.198e+00          -0.068          -0.129          -0.989       1.297e+00         -0.1326
 308       9.479e+00      -1.812e+01       1.250e+00          -0.120          -0.149          -0.981       1.105e+00         -0.0843
 309       9.024e+00      -1.812e+01       1.322e+00          -0.199          -0.182          -0.963       8.536e-01         -0.0172
 310       8.705e+00      -1.812e+01       1.415e+00          -0.387          -0.260          -0.885       5.783e-01          0.1997
 311       8.541e+00      -1.811e+01       1.543e+00          -0.800          -0.412          -0.436       3.924e-01          0.7934
 312       8.541e+00      -1.811e+01       1.690e+00          -0.812          -0.341           0.474       3.766e-01         -0.1190
 313       8.705e+00      -1.811e+01       1.811e+00          -0.361          -0.094           0.928       5.566e-01         -1.2428
 314       9.024e+00      -1.810e+01       1.890e+00          -0.156           0.004           0.988       8.350e-01         -0.8884
 315       9.479e+00      -1.810e+01       1.940e+00          -0.075           0.041           0.996       1.090e+00         -0.6844
 316       1.004e+01      -1.810e+01       1.966e+00          -0.021           0.065           0.998       1.286e+00         -0.5944
 317       1.068e+01      -1.810e+01       1.965e+00           0.021           0.082           0.996       1.412e+00         -0.5377
 318       1.137e+01      -1.810e+01       1.938e+00           0.058           0.096           0.994       1.457e+00         -0.4995
 319       1.205e+01      -1.810e+01       1.884e+00           0.100           0.111           0.989       1.422e+00         -0.4647
 320       1.269e+01      -1.810e+01       1.803e+00           0.153           0.129           0.980       1.308e+00         -0.4036
 321       1.325e+01      -1.811e+01       1.699e+00           0.210           0.145           0.967       1.120e+00         -0.3074
 322       1.371e+01      -1.811e+01       1.590e+00           0.260           0.159           0.952       8.629e-01         -0.1835
 323       1.402e+01      -1.811e+01       1.498e+00           0.299           0.168           0.939       5.461e-01         -0.0875
 324       1.419e+01      -1.811e+01       1.435e+00           0.494           0.210           0.844       2.063e-01          0.1165
Strip 13
 325       1.363e+01      -1.596e+01       1.202e+00          -0.064          -0.114          -0.991       2.008e-01          0.1113
 326       1.345e+01      -1.596e+01       1.235e+00          -0.216          -0.150          -0.965       6.063e-01          0.3000
 327       1.311e+01      -1.596e+01       1.278e+00          -0.065          -0.112          -0.992       9.459e-01          0.4043
 328       1.262e+01      -1.596e+01       1.264e+00           0.099          -0.065          -0.993       1.246e+00          0.3613
 329       1.201e+01      -1.596e+01       1.173e+00           0.187          -0.037          -0.982       1.492e+00          0.2115
 330       1.132e+01      -1.596e+01       1.050e+00           0.163          -0.044          -0.986       1.630e+00         -0.0101
 331       1.058e+01      -1.596e+01       9.673e-01           0.062          -0.080          -0.995       1.662e+00         -0.1584
 332       9.846e+00      -1.596e+01       9.494e-01          -0.014          -0.108          -0.994       1.614e+00         -0.1703
 333       9.154e+00      -1.596e+01       9.779e-01          -0.070          -0.130          -0.989       1.479e+00         -0.1347
 334       8.545e+00      -1.596e+01       1.036e+00          -0.122          -0.150          -0.981       1.259e+00         -0.0870
 335       8.054e+00      -1.596e+01       1.114e+00          -0.200          -0.183          -0.963       9.733e-01         -0.0211
 336       7.710e+00      -1.596e+01       1.216e+00          -0.388          -0.261          -0.884       6.599e-01          0.1936
 337       7.533e+00      -1.596e+01       1.354e+00          -0.800          -0.412          -0.437       4.478e-01          0.7915
 338       7.533e+00      -1.595e+01       1.513e+00          -0.812          -0.341           0.473       4.284e-01         -0.1060
 339       7.710e+00      -1.595e+01       1.643e+00          -0.360          -0.094           0.928       6.332e-01         -1.2337
 340       8.054e+00      -1.595e+01       1.727e+00          -0.154           0.005           0.988       9.507e-01         -0.8826
 341       8.545e+00      -1.595e+01       1.781e+00          -0.073           0.042           0.996       1.241e+00         -0.6803
 342       9.154e+00      -1.595e+01       1.808e+00          -0.019           0.065           0.998       1.465e+00         -0.5913
 343       9.846e+00      -1.595e+01       1.806e+00           0.023           0.083           0.996       1.608e+00         -0.5352
 344       1.058e+01      -1.595e+01       1.775e+00           0.060           0.097           0.993       1.661e+00         -0.4975
 345       1.132e+01      -1.595e+01       1.715e+00           0.102           0.112           0.988       1.620e+00         -0.4629
 346       1.201e+01      -1.595e+01       1.626e+00           0.155           0.129           0.979       1.491e+00         -0.4021
 347       1.262e+01      -1.595e+01       1.513e+00           0.212           0.146           0.966       1.277e+00         -0.3063
 348       1.311e+01      -1.595e+01       1.394e+00           0.262           0.159           0.952       9.839e-01         -0.1827
 349       1.345e+01      -1.595e+01       1.294e+00           0.300           0.169           0.939       6.227e-01         -0.0869
 350       1.363e+01      -1.596e+01       1.225e+00           0.495           0.210           0.843       2.354e-01          0.1166
Strip 14
 351       1.304e+01      -1.369e+01       9.807e-01          -0.066          -0.114          -0.991       2.262e-01          0.1103
 352       1.285e+01      -1.369e+01       1.016e+00          -0.217          -0.151          -0.964       6.835e-01          0.2997
 353       1.248e+01      -1.369e+01       1.063e+00          -0.066          -0.112          -0.991       1.066e+00          0.4042
 354       1.195e+01      -1.369e+01       1.049e+00           0.097          -0.066          -0.993       1.403e+00          0.3610
 355       1.129e+01      -1.369e+01       9.524e-01           0.186          -0.037          -0.982       1.680e+00          0.2107
 356       1.055e+01      -1.369e+01       8.212e-01           0.162          -0.045          -0.986       1.835e+00         -0.0119
 357       9.756e+00      -1.370e+01       7.330e-01           0.060          -0.081          -0.995       1.872e+00         -0.1610
 358       8.965e+00      -1.370e+01       7.151e-01          -0.016          -0.109          -0.994       1.819e+00         -0.1735
 359       8.219e+00      -1.370e+01       7.470e-01          -0.071          -0.130          -0.989       1.666e+00         -0.1384
 360       7.563e+00      -1.370e+01       8.103e-01          -0.123          -0.151          -0.981       1.419e+00         -0.0918
 361       7.034e+00      -1.370e+01       8.956e-01          -0.202          -0.183          -0.962       1.097e+00         -0.0279
 362       6.664e+00      -1.369e+01       1.006e+00          -0.389          -0.261          -0.884       7.445e-01          0.1832
 363       6.473e+00      -1.369e+01       1.155e+00          -0.799          -0.412          -0.438       5.052e-01          0.7884
 364       6.473e+00      -1.369e+01       1.327e+00          -0.813          -0.341           0.472       4.819e-01         -0.0857
 365       6.664e+00      -1.369e+01       1.466e+00          -0.359          -0.093           0.929       7.124e-01         -1.2157
 366       7.034e+00      -1.368e+01       1.556e+00          -0.152           0.006           0.988       1.070e+00         -0.8721
 367       7.563e+00      -1.368e+01       1.613e+00          -0.072           0.043           0.997       1.398e+00         -0.6733
 368       8.219e+00      -1.368e+01       1.641e+00          -0.018           0.066           0.998       1.651e+00         -0.5862
 369       8.965e+00      -1.368e+01       1.638e+00           0.024           0.083           0.996       1.812e+00         -0.5312
 370       9.756e+00      -1.368e+01       1.604e+00           0.061           0.098           0.993       1.871e+00         -0.4943
 371       1.055e+01      -1.368e+01       1.538e+00           0.104           0.113           0.988       1.826e+00         -0.4603
 372       1.129e+01      -1.368e+01       1.440e+00           0.156           0.130           0.979       1.680e+00         -0.4001
 373       1.195e+01      -1.369e+01       1.318e+00           0.213           0.146           0.966       1.440e+00         -0.3048
 374       1.248e+01      -1.369e+01       1.189e+00           0.263           0.159           0.951       1.109e+00         -0.1818
 375       1.285e+01      -1.369e+01       1.080e+00           0.302           0.169           0.938       7.021e-01         -0.0865
 376       1.304e+01      -1.369e+01       1.006e+00           0.496           0.211           0.843       2.655e-01          0.1166
Strip 15
 377       1.243e+01      -1.133e+01       7.501e-01          -0.068          -0.114          -0.991       2.521e-01          0.1091
 378       1.222e+01      -1.133e+01       7.883e-01          -0.219          -0.151          -0.964       7.621e-01          0.2993
 379       1.182e+01      -1.133e+01       8.397e-01          -0.068          -0.113          -0.991       1.188e+00          0.4038
 380       1.125e+01      -1.133e+01       8.254e-01           0.096          -0.066          -0.993       1.563e+00          0.3604
 381       1.055e+01      -1.133e+01       7.225e-01           0.184          -0.038          -0.982       1.871e+00          0.2094
 382       9.749e+00      -1.133e+01       5.827e-01           0.161          -0.045          -0.986       2.044e+00         -0.0143
 383       8.898e+00      -1.134e+01       4.891e-01           0.059          -0.082          -0.995       2.086e+00         -0.1646
 384       8.047e+00      -1.134e+01       4.711e-01          -0.017          -0.109          -0.994       2.027e+00         -0.1780
 385       7.246e+00      -1.134e+01       5.066e-01          -0.073          -0.131          -0.989       1.857e+00         -0.1439
 386       6.541e+00      -1.134e+01       5.757e-01          -0.125          -0.151          -0.981       1.582e+00         -0.0987
 387       5.973e+00      -1.133e+01       6.683e-01          -0.203          -0.184          -0.962       1.224e+00         -0.0377
 388       5.575e+00      -1.133e+01       7.872e-01          -0.390          -0.262          -0.883       8.307e-01          0.1683
 389       5.370e+00      -1.133e+01       9.481e-01          -0.799          -0.412          -0.438       5.638e-01          0.7837
 390       5.370e+00      -1.133e+01       1.132e+00          -0.813          -0.342           0.471       5.363e-01         -0.0578
 391       5.575e+00      -1.133e+01       1.282e+00          -0.358          -0.093           0.929       7.930e-01         -1.1883
 392       5.973e+00      -1.133e+01       1.379e+00          -0.151           0.007           0.988       1.192e+00         -0.8566
 393       6.541e+00      -1.132e+01       1.439e+00          -0.070           0.043           0.997       1.557e+00         -0.6631
 394       7.246e+00      -1.132e+01       1.468e+00          -0.016           0.067           0.998       1.839e+00         -0.5789
 395       8.048e+00      -1.132e+01       1.463e+00           0.026           0.084           0.996       2.020e+00         -0.5257
 396       8.898e+00      -1.132e+01       1.425e+00           0.063           0.098           0.993       2.086e+00         -0.4901
 397       9.749e+00      -1.132e+01       1.353e+00           0.105           0.113           0.988       2.036e+00         -0.4571
 398       1.055e+01      -1.133e+01       1.247e+00           0.158           0.130           0.979       1.873e+00         -0.3977
 399       1.125e+01      -1.133e+01       1.114e+00           0.214           0.146           0.966       1.605e+00         -0.3032
 400       1.182e+01      -1.133e+01       9.744e-01           0.265           0.160           0.951       1.237e+00         -0.1809
 401       1.222e+01      -1.133e+01       8.570e-01           0.303           0.169           0.938       7.830e-01         -0.0863
 402       1.243e+01      -1.133e+01       7.772e-01           0.496           0.211           0.842       2.962e-01          0.1161
Strip 16
 403       1.179e+01      -8.895e+00       5.120e-01          -0.069          -0.115          -0.991       2.780e-01          0.1075
 404       1.157e+01      -8.894e+00       5.532e-01          -0.220          -0.151          -0.964       8.407e-01          0.2985
 405       1.115e+01      -8.894e+00       6.089e-01          -0.069          -0.113          -0.991       1.310e+00          0.4031
 406       1.054e+01      -8.894e+00       5.943e-01           0.095          -0.066          -0.993       1.723e+00          0.3595
 407       9.782e+00      -8.895e+00       4.851e-01           0.183          -0.038          -0.982       2.062e+00          0.2076
 408       8.923e+00      -8.897e+00       3.363e-01           0.159          -0.046          -0.986       2.253e+00         -0.0178
 409       8.012e+00      -8.898e+00       2.372e-01           0.057          -0.082          -0.995       2.299e+00         -0.1696
 410       7.100e+00      -8.899e+00       2.191e-01          -0.019          -0.110          -0.994       2.235e+00         -0.1839
 411       6.241e+00      -8.899e+00       2.582e-01          -0.074          -0.131          -0.989       2.048e+00         -0.1511
 412       5.486e+00      -8.898e+00       3.333e-01          -0.126          -0.152          -0.980       1.745e+00         -0.1079
 413       4.877e+00      -8.897e+00       4.334e-01          -0.204          -0.184          -0.961       1.350e+00         -0.0508
 414       4.450e+00      -8.896e+00       5.615e-01          -0.390          -0.262          -0.883       9.169e-01          0.1483
 415       4.230e+00      -8.895e+00       7.343e-01          -0.798          -0.412          -0.439       6.224e-01          0.7771
 416       4.230e+00      -8.893e+00       9.319e-01          -0.814          -0.342           0.470       5.906e-01         -0.0213
 417       4.450e+00      -8.891e+00       1.092e+00          -0.357          -0.092           0.930       8.734e-01         -1.1497
 418       4.877e+00      -8.890e+00       1.195e+00          -0.150           0.007           0.989       1.314e+00         -0.8350
 419       5.486e+00      -8.889e+00       1.259e+00          -0.069           0.044           0.997       1.717e+00         -0.6493
 420       6.241e+00      -8.889e+00       1.289e+00          -0.015           0.067           0.998       2.028e+00         -0.5691
 421       7.100e+00      -8.889e+00       1.283e+00           0.027           0.084           0.996       2.227e+00         -0.5187
 422       8.012e+00      -8.889e+00       1.240e+00           0.064           0.099           0.993       2.300e+00         -0.4851
 423       8.923e+00      -8.889e+00       1.162e+00           0.106           0.113           0.988       2.245e+00         -0.4535
 424       9.782e+00      -8.890e+00       1.047e+00           0.159           0.130           0.979       2.067e+00         -0.3953
 425       1.054e+01      -8.891e+00       9.038e-01           0.216           0.147           0.965       1.771e+00         -0.3018
 426       1.115e+01      -8.893e+00       7.533e-01           0.266           0.160           0.951       1.365e+00         -0.1803
 427       1.157e+01      -8.894e+00       6.269e-01           0.304           0.169           0.937       8.640e-01         -0.0866
 428       1.179e+01      -8.894e+00       5.410e-01           0.497           0.211           0.842       3.269e-01          0.1150
Strip 17
 429       1.114e+01      -6.397e+00       2.679e-01          -0.070          -0.115          -0.991       3.035e-01          0.1052
 430       1.091e+01      -6.397e+00       3.123e-01          -0.221          -0.152          -0.963       9.178e-01          0.2972
 431       1.045e+01      -6.397e+00       3.723e-01          -0.070          -0.113          -0.991       1.430e+00          0.4019
 432       9.802e+00      -6.397e+00       3.575e-01           0.093          -0.067          -0.993       1.880e+00          0.3579
 433       8.995e+00      -6.398e+00       2.417e-01           0.182          -0.038          -0.983       2.250e+00          0.2048
 434       8.077e+00      -6.399e+00       8.373e-02           0.158          -0.046          -0.986       2.458e+00         -0.0227
 435       7.103e+00      -6.400e+00      -2.101e-02           0.056          -0.082          -0.995       2.509e+00         -0.1762
 436       6.129e+00      -6.400e+00      -3.923e-02          -0.020          -0.110          -0.994       2.439e+00         -0.1916
 437       5.211e+00      -6.400e+00       3.733e-03          -0.075          -0.132          -0.988       2.236e+00         -0.1598
 438       4.404e+00      -6.400e+00       8.495e-02          -0.127          -0.152          -0.980       1.905e+00         -0.1190
 439       3.753e+00      -6.399e+00       1.927e-01          -0.205          -0.185          -0.961       1.474e+00         -0.0669
 440       3.297e+00      -6.398e+00       3.301e-01          -0.391          -0.262          -0.882       1.002e+00          0.1226
 441       3.062e+00      -6.397e+00       5.151e-01          -0.798          -0.412          -0.440       6.799e-01          0.7676
 442       3.062e+00      -6.396e+00       7.264e-01          -0.814          -0.342           0.470       6.438e-01          0.0264
 443       3.297e+00      -6.395e+00       8.973e-01          -0.356          -0.092           0.930       9.522e-01         -1.0954
 444       3.753e+00      -6.394e+00       1.007e+00          -0.149           0.008           0.989       1.433e+00         -0.8044
 445       4.404e+00      -6.393e+00       1.074e+00          -0.068           0.044           0.997       1.873e+00         -0.6299
 446       5.211e+00      -6.393e+00       1.105e+00          -0.014           0.068           0.998       2.213e+00         -0.5562
 447       6.129e+00      -6.393e+00       1.098e+00           0.028           0.085           0.996       2.430e+00         -0.5102
 448       7.103e+00      -6.393e+00       1.051e+00           0.065           0.099           0.993       2.511e+00         -0.4797
 449       8.077e+00      -6.393e+00       9.666e-01           0.108           0.114           0.988       2.451e+00         -0.4505
 450       8.995e+00      -6.394e+00       8.428e-01           0.160           0.131           0.978       2.256e+00         -0.3939
 451       9.803e+00      -6.395e+00       6.884e-01           0.217           0.147           0.965       1.933e+00         -0.3015
 452       1.045e+01      -6.396e+00       5.267e-01           0.267           0.160           0.950       1.490e+00         -0.1808
 453       1.091e+01      -6.396e+00       3.911e-01           0.305           0.170           0.937       9.434e-01         -0.0880
 454       1.114e+01      -6.397e+00       2.989e-01           0.498           0.211           0.841       3.570e-01          0.1128
Strip 18
 455       1.048e+01      -3.856e+00       1.958e-02          -0.071          -0.115          -0.991       3.278e-01          0.1012
 456       1.023e+01      -3.856e+00       6.709e-02          -0.222          -0.152          -0.963       9.918e-01          0.2947
 457       9.748e+00      -3.855e+00       1.316e-01          -0.071          -0.114          -0.991       1.545e+00          0.3994
 458       9.054e+00      -3.856e+00       1.166e-01           0.092          -0.067          -0.993       2.030e+00          0.3545
 459       8.194e+00      -3.856e+00      -5.923e-03           0.181          -0.039          -0.983       2.429e+00          0.1991
 460       7.217e+00      -3.857e+00      -1.732e-01           0.157          -0.047          -0.986       2.654e+00         -0.0311
 461       6.179e+00      -3.857e+00      -2.837e-01           0.055          -0.083          -0.995       2.710e+00         -0.1856
 462       5.141e+00      -3.858e+00      -3.020e-01          -0.021          -0.111          -0.994       2.634e+00         -0.2002
 463       4.163e+00      -3.858e+00      -2.552e-01          -0.076          -0.132          -0.988       2.415e+00         -0.1680
 464       3.303e+00      -3.857e+00      -1.678e-01          -0.128          -0.153          -0.980       2.059e+00         -0.1289
 465       2.610e+00      -3.857e+00      -5.219e-02          -0.206          -0.185          -0.961       1.593e+00         -0.0831
 466       2.124e+00      -3.857e+00       9.476e-02          -0.392          -0.262          -0.882       1.083e+00          0.0922
 467       1.874e+00      -3.856e+00       2.921e-01          -0.798          -0.412          -0.440       7.351e-01          0.7556
 468       1.874e+00      -3.855e+00       5.172e-01          -0.814          -0.342           0.469       6.948e-01          0.0935
 469       2.124e+00      -3.854e+00       6.992e-01          -0.355          -0.092           0.930       1.028e+00         -1.0119
 470       2.610e+00      -3.854e+00       8.152e-01          -0.148           0.008           0.989       1.548e+00         -0.7560
 471       3.303e+00      -3.853e+00       8.863e-01          -0.067           0.045           0.997       2.023e+00         -0.5998
 472       4.164e+00      -3.853e+00       9.187e-01          -0.013           0.068           0.998       2.390e+00         -0.5373
 473       5.141e+00      -3.853e+00       9.095e-01           0.030           0.085           0.996       2.625e+00         -0.4998
 474       6.179e+00      -3.853e+00       8.591e-01           0.066           0.099           0.993       2.712e+00         -0.4758
 475       7.217e+00      -3.853e+00       7.676e-01           0.109           0.114           0.988       2.648e+00         -0.4511
 476       8.194e+00      -3.854e+00       6.347e-01           0.161           0.131           0.978       2.437e+00         -0.3970
 477       9.054e+00      -3.854e+00       4.691e-01           0.218           0.147           0.965       2.089e+00         -0.3054
 478       9.748e+00      -3.855e+00       2.961e-01           0.268           0.161           0.950       1.610e+00         -0.1846
 479       1.023e+01      -3.855e+00       1.511e-01           0.306           0.170           0.937       1.020e+00         -0.0921
 480       1.048e+01      -3.856e+00       5.259e-02           0.498           0.211           0.841       3.860e-01          0.1083
Strip 19
 481       9.816e+00      -1.288e+00      -2.313e-01          -0.072          -0.116          -0.991       3.506e-01          0.0949
 482       9.551e+00      -1.288e+00      -1.806e-01          -0.223          -0.152          -0.963       1.061e+00          0.2901
 483       9.035e+00      -1.288e+00      -1.116e-01          -0.072          -0.114          -0.991       1.652e+00          0.3931
 484       8.299e+00      -1.288e+00      -1.269e-01           0.091          -0.067          -0.994       2.171e+00          0.3412
 485       7.385e+00      -1.288e+00      -2.561e-01           0.180          -0.039          -0.983       2.596e+00          0.1771
 486       6.347e+00      -1.289e+00      -4.328e-01           0.156          -0.047          -0.987       2.837e+00         -0.0554
 487       5.245e+00      -1.289e+00      -5.492e-01           0.054          -0.083          -0.995       2.897e+00         -0.2006
 488       4.143e+00      -1.289e+00      -5.676e-01          -0.022          -0.111          -0.994       2.817e+00         -0.2015
 489       3.105e+00      -1.289e+00      -5.169e-01          -0.077          -0.133          -0.988       2.583e+00         -0.1590
 490       2.191e+00      -1.289e+00      -4.231e-01          -0.129          -0.153          -0.980       2.202e+00         -0.1158
 491       1.455e+00      -1.289e+00      -2.996e-01          -0.207          -0.186          -0.961       1.704e+00         -0.0761
 492       9.387e-01      -1.288e+00      -1.431e-01          -0.392          -0.263          -0.882       1.159e+00          0.0700
 493       6.731e-01      -1.288e+00       6.686e-02          -0.798          -0.412          -0.441       7.867e-01          0.7357
 494       6.731e-01      -1.288e+00       3.060e-01          -0.814          -0.342           0.468       7.423e-01          0.2142
 495       9.388e-01      -1.288e+00       4.990e-01          -0.355          -0.091           0.930       1.098e+00         -0.8309
 496       1.455e+00      -1.288e+00       6.218e-01          -0.147           0.008           0.989       1.654e+00         -0.6436
 497       2.191e+00      -1.287e+00       6.966e-01          -0.066           0.045           0.997       2.162e+00         -0.5338
 498       3.105e+00      -1.287e+00       7.300e-01          -0.012           0.068           0.998       2.556e+00         -0.5024
 499       4.143e+00      -1.287e+00       7.193e-01           0.030           0.086           0.996       2.807e+00         -0.4861
 500       5.245e+00      -1.287e+00       6.647e-01           0.067           0.100           0.993       2.900e+00         -0.4793
 501       6.347e+00      -1.287e+00       5.665e-01           0.110           0.115           0.987       2.832e+00         -0.4679
 502       7.385e+00      -1.288e+00       4.243e-01           0.162           0.131           0.978       2.607e+00         -0.4206
 503       8.299e+00      -1.288e+00       2.476e-01           0.218           0.148           0.965       2.235e+00         -0.3278
 504       9.035e+00      -1.288e+00       6.318e-02           0.268           0.161           0.950       1.723e+00         -0.2019
 505       9.551e+00      -1.288e+00      -9.143e-02           0.307           0.170           0.937       1.091e+00         -0.1051
 506       9.816e+00      -1.288e+00      -1.963e-01           0.499           0.211           0.841       4.130e-01          0.0971
Strip 20
 507       9.816e+00       1.288e+00      -2.313e-01          -0.072           0.116          -0.991       3.506e-01          0.0950
 508       9.551e+00       1.288e+00      -1.806e-01          -0.223           0.152          -0.963       1.061e+00          0.2901
 509       9.035e+00       1.288e+00      -1.116e-01          -0.072           0.114          -0.991       1.652e+00          0.3931
 510       8.299e+00       1.288e+00      -1.269e-01           0.091           0.067          -0.994       2.171e+00          0.3412
 511       7.385e+00       1.288e+00      -2.561e-01           0.180           0.039          -0.983       2.596e+00          0.1771
 512       6.347e+00       1.289e+00      -4.328e-01           0.156           0.047          -0.987       2.837e+00         -0.0554
 513       5.245e+00       1.289e+00      -5.492e-01           0.054           0.083          -0.995       2.897e+00         -0.2006
 514       4.143e+00       1.289e+00      -5.676e-01          -0.022           0.111          -0.994       2.817e+00         -0.2015
 515       3.105e+00       1.289e+00      -5.169e-01          -0.077           0.133          -0.988       2.583e+00         -0.1590
 516       2.191e+00       1.289e+00      -4.231e-01          -0.129           0.153          -0.980       2.202e+00         -0.1158
 517       1.455e+00       1.289e+00      -2.996e-01          -0.207           0.186          -0.961       1.704e+00         -0.0761
 518       9.387e-01       1.288e+00      -1.431e-01          -0.392           0.263          -0.882       1.159e+00          0.0700
 519       6.731e-01       1.288e+00       6.686e-02          -0.798           0.412          -0.441       7.867e-01          0.7357
 520       6.731e-01       1.288e+00       3.060e-01          -0.814           0.342           0.468       7.423e-01          0.2141
 521       9.388e-01       1.288e+00       4.990e-01          -0.355           0.091           0.930       1.098e+00         -0.8309
 522       1.455e+00       1.288e+00       6.218e-01          -0.147          -0.008           0.989       1.654e+00         -0.6436
 523       2.191e+00       1.287e+00       6.966e-01          -0.066          -0.045           0.997       2.162e+00         -0.5338
 524       3.105e+00       1.287e+00       7.300e-01          -0.012          -0.068           0.998       2.556e+00         -0.5024
 525       4.143e+00       1.287e+00       7.193e-01           0.030          -0.086           0.996       2.807e+00         -0.4861
 526       5.245e+00       1.287e+00       6.647e-01           0.067          -0.100           0.993       2.900e+00         -0.4793
 527       6.347e+00       1.287e+00       5.665e-01           0.110          -0.115           0.987       2.832e+00         -0.4679
 528       7.385e+00       1.288e+00       4.243e-01           0.162          -0.131           0.978       2.607e+00         -0.4206
 529       8.299e+00       1.288e+00       2.476e-01           0.218          -0.148           0.965       2.235e+00         -0.3278
 530       9.035e+00       1.288e+00       6.318e-02           0.268          -0.161           0.950       1.723e+00         -0.2019
 531       9.551e+00       1.288e+00      -9.143e-02           0.307          -0.170           0.937       1.091e+00         -0.1050
 532       9.816e+00       1.288e+00      -1.963e-01           0.499          -0.211           0.841       4.130e-01          0.0971
Strip 21
 533       1.048e+01       3.856e+00       1.958e-02          -0.071           0.115          -0.991       3.278e-01          0.1012
 534       1.023e+01       3.856e+00       6.709e-02          -0.222           0.152          -0.963       9.918e-01          0.2947
 535       9.748e+00       3.855e+00       1.316e-01          -0.071           0.114          -0.991       1.545e+00          0.3994
 536       9.054e+00       3.856e+00       1.166e-01           0.092           0.067          -0.993       2.030e+00          0.3545
 537       8.194e+00       3.856e+00      -5.923e-03           0.181           0.039          -0.983       2.429e+00          0.1991
 538       7.217e+00       3.857e+00      -1.732e-01           0.157           0.047          -0.986       2.654e+00         -0.0311
 539       6.179e+00       3.857e+00      -2.837e-01           0.055           0.083          -0.995       2.710e+00         -0.1856
 540       5.141e+00       3.858e+00      -3.020e-01          -0.021           0.111          -0.994       2.634e+00         -0.2002
 541       4.163e+00       3.858e+00      -2.552e-01          -0.076           0.132          -0.988       2.415e+00         -0.1680
 542       3.303e+00       3.857e+00      -1.678e-01          -0.128           0.153          -0.980       2.059e+00         -0.1289
 543       2.610e+00       3.857e+00      -5.219e-02          -0.206           0.185          -0.961       1.593e+00         -0.0831
 544       2.124e+00       3.857e+00       9.476e-02          -0.392           0.262          -0.882       1.083e+00          0.0922
 545       1.874e+00       3.856e+00       2.921e-01          -0.798           0.412          -0.440       7.351e-01          0.7556
 546       1.874e+00       3.855e+00       5.172e-01          -0.814           0.342           0.469       6.948e-01          0.0935
 547       2.124e+00       3.854e+00       6.992e-01          -0.355           0.092           0.930       1.028e+00         -1.0119
 548       2.610e+00       3.854e+00       8.152e-01          -0.148          -0.008           0.989       1.548e+00         -0.7560
 549       3.303e+00       3.853e+00       8.863e-01          -0.067          -0.045           0.997       2.023e+00         -0.5998
 550       4.164e+00       3.853e+00       9.187e-01          -0.013          -0.068           0.998       2.390e+00         -0.5373
 551       5.141e+00       3.853e+00       9.095e-01           0.030          -0.085           0.996       2.625e+00         -0.4998
 552       6.179e+00       3.853e+00       8.591e-01           0.066          -0.099           0.993       2.712e+00         -0.4758
 553       7.217e+00       3.853e+00       7.676e-01           0.109          -0.114           0.988       2.648e+00         -0.4511
 554       8.194e+00       3.854e+00       6.347e-01           0.161          -0.131           0.978       2.437e+00         -0.3970
 555       9.054e+00       3.854e+00       4.691e-01           0.218          -0.147           0.965       2.089e+00         -0.3054
 556       9.748e+00       3.855e+00       2.961e-01           0.268          -0.161           0.950       1.610e+00         -0.1846
 557       1.023e+01       3.855e+00       1.511e-01           0.306          -0.170           0.937       1.020e+00         -0.0921
 558       1.048e+01       3.856e+00       5.259e-02           0.498          -0.211           0.841       3.860e-01          0.1083
Strip 22
 559       1.114e+01       6.397e+00       2.679e-01          -0.070           0.115          -0.991       3.035e-01          0.1052
 560       1.091e+01       6.397e+00       3.123e-01          -0.221           0.152          -0.963       9.178e-01          0.2972
 561       1.045e+01       6.397e+00       3.723e-01          -0.070           0.113          -0.991       1.430e+00          0.4019
 562       9.802e+00       6.397e+00       3.575e-01           0.093           0.067          -0.993       1.880e+00          0.3579
 563       8.995e+00       6.398e+00       2.417e-01           0.182           0.038          -0.983       2.250e+00          0.2048
[...]
 853       1.412e+01       2.802e+01       2.206e+00          -0.054           0.123          -0.991       4.443e-01         -0.1609
 854       1.376e+01       2.802e+01       2.234e+00          -0.106           0.144          -0.984       3.777e-01         -0.1190
 855       1.347e+01       2.801e+01       2.275e+00          -0.186           0.177          -0.966       2.911e-01         -0.0633
 856       1.327e+01       2.801e+01       2.332e+00          -0.379           0.257          -0.889       1.961e-01          0.1373
 857       1.317e+01       2.801e+01       2.411e+00          -0.804           0.413          -0.427       1.330e-01          0.7806
 858       1.317e+01       2.800e+01       2.504e+00          -0.808           0.338           0.482       1.309e-01         -0.0322
 859       1.327e+01       2.799e+01       2.582e+00          -0.370           0.099           0.924       1.932e-01         -1.1045
 860       1.347e+01       2.799e+01       2.635e+00          -0.169           0.002           0.986       2.881e-01         -0.8159
 861       1.376e+01       2.799e+01       2.671e+00          -0.089          -0.035           0.995       3.750e-01         -0.6365
 862       1.412e+01       2.799e+01       2.693e+00          -0.035          -0.059           0.998       4.419e-01         -0.5574
 863       1.453e+01       2.799e+01       2.698e+00           0.007          -0.077           0.997       4.843e-01         -0.5068
 864       1.496e+01       2.799e+01       2.687e+00           0.044          -0.091           0.995       4.995e-01         -0.4733
 865       1.540e+01       2.799e+01       2.659e+00           0.086          -0.107           0.991       4.867e-01         -0.4433
 866       1.580e+01       2.799e+01       2.613e+00           0.139          -0.125           0.982       4.471e-01         -0.3877
 867       1.616e+01       2.799e+01       2.552e+00           0.197          -0.142           0.970       3.824e-01         -0.2969
 868       1.645e+01       2.800e+01       2.487e+00           0.248          -0.156           0.956       2.943e-01         -0.1779
 869       1.665e+01       2.800e+01       2.432e+00           0.288          -0.166           0.943       1.861e-01         -0.0860
 870       1.676e+01       2.800e+01       2.393e+00           0.487          -0.209           0.848       7.008e-02          0.1164
Strip 34
 871       1.703e+01       2.904e+01       2.481e+00          -0.046           0.109          -0.993       4.697e-02          0.1158
 872       1.693e+01       2.904e+01       2.497e+00          -0.199           0.146          -0.969       1.412e-01          0.2944
 873       1.674e+01       2.904e+01       2.517e+00          -0.046           0.107          -0.993       2.213e-01          0.3953
 874       1.647e+01       2.904e+01       2.504e+00           0.117           0.060          -0.991       2.931e-01          0.3495
 875       1.613e+01       2.904e+01       2.448e+00           0.204           0.031          -0.978       3.521e-01          0.1975
 876       1.575e+01       2.905e+01       2.373e+00           0.181           0.038          -0.983       3.844e-01         -0.0276
 877       1.534e+01       2.905e+01       2.320e+00           0.080           0.074          -0.994       3.906e-01         -0.1835
 878       1.493e+01       2.905e+01       2.302e+00           0.004           0.101          -0.995       3.782e-01         -0.2035
 879       1.455e+01       2.905e+01       2.311e+00          -0.052           0.122          -0.991       3.456e-01         -0.1756
 880       1.421e+01       2.905e+01       2.337e+00          -0.104           0.143          -0.984       2.937e-01         -0.1372
 881       1.394e+01       2.905e+01       2.375e+00          -0.184           0.176          -0.967       2.262e-01         -0.0873
 882       1.375e+01       2.905e+01       2.427e+00          -0.377           0.257          -0.890       1.523e-01          0.1035
 883       1.365e+01       2.904e+01       2.502e+00          -0.805           0.414          -0.426       1.032e-01          0.7700
 884       1.365e+01       2.903e+01       2.590e+00          -0.807           0.338           0.484       1.021e-01          0.0130
 885       1.375e+01       2.903e+01       2.663e+00          -0.371           0.099           0.923       1.507e-01         -1.0443
 886       1.394e+01       2.903e+01       2.713e+00          -0.171           0.003           0.985       2.244e-01         -0.7801
 887       1.421e+01       2.902e+01       2.748e+00          -0.092          -0.034           0.995       2.919e-01         -0.6098
 888       1.455e+01       2.902e+01       2.769e+00          -0.038          -0.058           0.998       3.439e-01         -0.5340
 889       1.493e+01       2.902e+01       2.775e+00           0.004          -0.076           0.997       3.768e-01         -0.4847
 890       1.534e+01       2.902e+01       2.765e+00           0.041          -0.090           0.995       3.885e-01         -0.4523
 891       1.575e+01       2.902e+01       2.740e+00           0.084          -0.106           0.991       3.785e-01         -0.4241
 892       1.613e+01       2.903e+01       2.698e+00           0.137          -0.124           0.983       3.477e-01         -0.3718
 893       1.647e+01       2.903e+01       2.642e+00           0.195          -0.141           0.971       2.973e-01         -0.2854
 894       1.674e+01       2.903e+01       2.581e+00           0.246          -0.155           0.957       2.287e-01         -0.1708
 895       1.693e+01       2.904e+01       2.529e+00           0.286          -0.165           0.944       1.446e-01         -0.0825
 896       1.703e+01       2.904e+01       2.494e+00           0.486          -0.209           0.849       5.443e-02          0.1186
Strip 35
 897       1.725e+01       2.988e+01       2.562e+00          -0.044           0.108          -0.993       3.496e-02          0.1127
 898       1.715e+01       2.988e+01       2.577e+00          -0.197           0.146          -0.969       1.050e-01          0.2885
 899       1.697e+01       2.987e+01       2.596e+00          -0.044           0.106          -0.993       1.647e-01          0.3878
 900       1.671e+01       2.988e+01       2.584e+00           0.119           0.059          -0.991       2.183e-01          0.3421
 901       1.639e+01       2.988e+01       2.530e+00           0.206           0.030          -0.978       2.624e-01          0.1910
 902       1.603e+01       2.988e+01       2.458e+00           0.183           0.037          -0.982       2.864e-01         -0.0338
 903       1.564e+01       2.989e+01       2.406e+00           0.082           0.073          -0.994       2.909e-01         -0.1913
 904       1.526e+01       2.989e+01       2.389e+00           0.007           0.100          -0.995       2.816e-01         -0.2152
 905       1.489e+01       2.989e+01       2.396e+00          -0.049           0.121          -0.991       2.572e-01         -0.1928
 906       1.457e+01       2.989e+01       2.420e+00          -0.102           0.142          -0.985       2.185e-01         -0.1603
 907       1.432e+01       2.989e+01       2.456e+00          -0.182           0.175          -0.968       1.683e-01         -0.1187
 908       1.414e+01       2.988e+01       2.505e+00          -0.376           0.256          -0.891       1.132e-01          0.0589
 909       1.404e+01       2.988e+01       2.575e+00          -0.805           0.414          -0.425       7.669e-02          0.7519
 910       1.404e+01       2.987e+01       2.658e+00          -0.807           0.337           0.485       7.615e-02          0.0645
 911       1.414e+01       2.986e+01       2.728e+00          -0.373           0.100           0.923       1.124e-01         -0.9735
 912       1.432e+01       2.986e+01       2.776e+00          -0.173           0.004           0.985       1.672e-01         -0.7349
 913       1.457e+01       2.986e+01       2.809e+00          -0.094          -0.033           0.995       2.174e-01         -0.5730
 914       1.489e+01       2.986e+01       2.830e+00          -0.040          -0.057           0.998       2.561e-01         -0.4983
 915       1.526e+01       2.986e+01       2.837e+00           0.002          -0.075           0.997       2.805e-01         -0.4484
 916       1.564e+01       2.986e+01       2.829e+00           0.039          -0.090           0.995       2.892e-01         -0.4164
 917       1.603e+01       2.986e+01       2.805e+00           0.082          -0.105           0.991       2.817e-01         -0.3912
 918       1.639e+01       2.986e+01       2.766e+00           0.135          -0.123           0.983       2.587e-01         -0.3452
 919       1.671e+01       2.987e+01       2.714e+00           0.193          -0.141           0.971       2.212e-01         -0.2672
 920       1.697e+01       2.987e+01       2.657e+00           0.244          -0.155           0.957       1.701e-01         -0.1608
 921       1.715e+01       2.987e+01       2.608e+00           0.284          -0.165           0.945       1.076e-01         -0.0793
 922       1.725e+01       2.988e+01       2.575e+00           0.485          -0.208           0.849       4.046e-02          0.1198
Strip 36
 923       1.741e+01       3.051e+01       2.624e+00          -0.042           0.108          -0.993       2.411e-02          0.0943
 924       1.732e+01       3.051e+01       2.638e+00          -0.195           0.146          -0.970       7.239e-02          0.2658
 925       1.715e+01       3.051e+01       2.656e+00          -0.042           0.106          -0.993       1.136e-01          0.3642
 926       1.690e+01       3.051e+01       2.644e+00           0.121           0.058          -0.991       1.506e-01          0.3222
 927       1.659e+01       3.051e+01       2.591e+00           0.208           0.030          -0.978       1.811e-01          0.1781
 928       1.624e+01       3.052e+01       2.522e+00           0.185           0.037          -0.982       1.977e-01         -0.0381
 929       1.587e+01       3.052e+01       2.472e+00           0.084           0.072          -0.994       2.007e-01         -0.1896
 930       1.550e+01       3.052e+01       2.454e+00           0.008           0.100          -0.995       1.942e-01         -0.2154
 931       1.515e+01       3.052e+01       2.461e+00          -0.047           0.121          -0.992       1.774e-01         -0.2039
 932       1.485e+01       3.052e+01       2.483e+00          -0.100           0.141          -0.985       1.507e-01         -0.1869
 933       1.460e+01       3.052e+01       2.516e+00          -0.180           0.174          -0.968       1.159e-01         -0.1608
 934       1.443e+01       3.051e+01       2.563e+00          -0.375           0.256          -0.891       7.792e-02         -0.0028
 935       1.434e+01       3.051e+01       2.631e+00          -0.806           0.414          -0.423       5.280e-02          0.7174
 936       1.434e+01       3.050e+01       2.710e+00          -0.806           0.337           0.486       5.261e-02          0.1137
 937       1.443e+01       3.050e+01       2.778e+00          -0.374           0.101           0.922       7.762e-02         -0.8961
 938       1.460e+01       3.049e+01       2.824e+00          -0.175           0.004           0.985       1.154e-01         -0.6791
 939       1.485e+01       3.049e+01       2.856e+00          -0.096          -0.032           0.995       1.500e-01         -0.5200
 940       1.515e+01       3.049e+01       2.877e+00          -0.042          -0.056           0.998       1.766e-01         -0.4403
 941       1.550e+01       3.049e+01       2.884e+00           0.000          -0.074           0.997       1.935e-01         -0.3883
 942       1.587e+01       3.049e+01       2.877e+00           0.037          -0.089           0.995       1.994e-01         -0.3595
 943       1.624e+01       3.049e+01       2.855e+00           0.080          -0.105           0.991       1.942e-01         -0.3419
 944       1.659e+01       3.049e+01       2.818e+00           0.133          -0.123           0.983       1.783e-01         -0.3076
 945       1.690e+01       3.050e+01       2.769e+00           0.191          -0.140           0.972       1.524e-01         -0.2449
 946       1.715e+01       3.050e+01       2.714e+00           0.243          -0.154           0.958       1.173e-01         -0.1550
 947       1.732e+01       3.051e+01       2.668e+00           0.282          -0.164           0.945       7.412e-02         -0.0887
 948       1.741e+01       3.051e+01       2.636e+00           0.484          -0.208           0.850       2.786e-02          0.1072
Strip 37
 949       1.752e+01       3.093e+01       2.666e+00          -0.041           0.108          -0.993       1.411e-02          0.0121
 950       1.743e+01       3.093e+01       2.679e+00          -0.194           0.145          -0.970       4.236e-02          0.1696
 951       1.727e+01       3.093e+01       2.696e+00          -0.041           0.106          -0.994       6.649e-02          0.2742
 952       1.702e+01       3.093e+01       2.684e+00           0.122           0.058          -0.991       8.822e-02          0.2588
 953       1.673e+01       3.094e+01       2.633e+00           0.209           0.029          -0.977       1.061e-01          0.1447
 954       1.639e+01       3.094e+01       2.565e+00           0.186           0.036          -0.982       1.158e-01         -0.0428
 955       1.603e+01       3.095e+01       2.516e+00           0.085           0.072          -0.994       1.175e-01         -0.1716
 956       1.567e+01       3.095e+01       2.498e+00           0.010           0.099          -0.995       1.137e-01         -0.1871
 957       1.533e+01       3.095e+01       2.504e+00          -0.046           0.120          -0.992       1.038e-01         -0.1820
 958       1.503e+01       3.095e+01       2.525e+00          -0.099           0.141          -0.985       8.817e-02         -0.2026
 959       1.479e+01       3.094e+01       2.557e+00          -0.179           0.174          -0.968       6.784e-02         -0.2136
 960       1.462e+01       3.094e+01       2.603e+00          -0.374           0.255          -0.892       4.557e-02         -0.0999
 961       1.454e+01       3.093e+01       2.668e+00          -0.806           0.414          -0.423       3.088e-02          0.6199
 962       1.454e+01       3.093e+01       2.745e+00          -0.806           0.337           0.487       3.084e-02          0.1248
 963       1.462e+01       3.092e+01       2.811e+00          -0.374           0.101           0.922       4.549e-02         -0.8168
 964       1.479e+01       3.092e+01       2.856e+00          -0.176           0.005           0.984       6.761e-02         -0.6054
 965       1.503e+01       3.091e+01       2.888e+00          -0.097          -0.032           0.995       8.786e-02         -0.4345
 966       1.533e+01       3.091e+01       2.908e+00          -0.043          -0.055           0.998       1.034e-01         -0.3474
 967       1.567e+01       3.091e+01       2.915e+00          -0.001          -0.073           0.997       1.133e-01         -0.3048
 968       1.603e+01       3.091e+01       2.909e+00           0.036          -0.088           0.995       1.167e-01         -0.2886
 969       1.639e+01       3.091e+01       2.888e+00           0.079          -0.104           0.991       1.137e-01         -0.2821
 970       1.673e+01       3.092e+01       2.853e+00           0.132          -0.122           0.984       1.044e-01         -0.2692
 971       1.702e+01       3.092e+01       2.805e+00           0.190          -0.140           0.972       8.920e-02         -0.2430
 972       1.727e+01       3.093e+01       2.753e+00           0.242          -0.154           0.958       6.860e-02         -0.1984
 973       1.743e+01       3.093e+01       2.708e+00           0.281          -0.164           0.946       4.337e-02         -0.1745
 974       1.752e+01       3.093e+01       2.677e+00           0.483          -0.208           0.850       1.630e-02          0.0142
Strip 38
 975       1.758e+01       3.115e+01       2.686e+00          -0.040           0.107          -0.993       4.645e-03         -0.0824
 976       1.749e+01       3.114e+01       2.700e+00          -0.194           0.145          -0.970       1.394e-02          0.0266
 977       1.732e+01       3.114e+01       2.717e+00          -0.040           0.105          -0.994       2.188e-02          0.1062
 978       1.709e+01       3.114e+01       2.704e+00           0.123           0.058          -0.991       2.904e-02          0.1221
 979       1.679e+01       3.115e+01       2.653e+00           0.210           0.029          -0.977       3.492e-02          0.0679
 980       1.646e+01       3.115e+01       2.586e+00           0.187           0.036          -0.982       3.812e-02         -0.0532
 981       1.611e+01       3.116e+01       2.538e+00           0.086           0.071          -0.994       3.868e-02         -0.1399
 982       1.575e+01       3.116e+01       2.520e+00           0.010           0.099          -0.995       3.742e-02         -0.1486
 983       1.542e+01       3.116e+01       2.526e+00          -0.045           0.120          -0.992       3.417e-02         -0.1147
 984       1.512e+01       3.116e+01       2.546e+00          -0.098           0.140          -0.985       2.901e-02         -0.1804
 985       1.489e+01       3.116e+01       2.578e+00          -0.178           0.174          -0.969       2.232e-02         -0.2139
 986       1.472e+01       3.115e+01       2.622e+00          -0.374           0.255          -0.892       1.499e-02         -0.1283
 987       1.464e+01       3.115e+01       2.687e+00          -0.806           0.414          -0.422       1.016e-02          0.5285
 988       1.464e+01       3.114e+01       2.763e+00          -0.806           0.337           0.487       1.016e-02          0.1498
 989       1.472e+01       3.113e+01       2.827e+00          -0.375           0.101           0.922       1.498e-02         -0.6763
 990       1.489e+01       3.113e+01       2.872e+00          -0.177           0.005           0.984       2.226e-02         -0.5080
 991       1.512e+01       3.113e+01       2.903e+00          -0.098          -0.031           0.995       2.892e-02         -0.3428
 992       1.542e+01       3.113e+01       2.923e+00          -0.044          -0.055           0.998       3.405e-02         -0.2388
 993       1.575e+01       3.112e+01       2.931e+00          -0.002          -0.073           0.997       3.728e-02         -0.2404
 994       1.611e+01       3.113e+01       2.925e+00           0.035          -0.088           0.995       3.842e-02         -0.2240
 995       1.646e+01       3.113e+01       2.905e+00           0.078          -0.104           0.992       3.741e-02         -0.2122
 996       1.679e+01       3.113e+01       2.870e+00           0.131          -0.122           0.984       3.434e-02         -0.1985
 997       1.709e+01       3.113e+01       2.823e+00           0.189          -0.140           0.972       2.935e-02         -0.1929
 998       1.732e+01       3.114e+01       2.772e+00           0.241          -0.154           0.958       2.257e-02         -0.2030
 999       1.749e+01       3.114e+01       2.728e+00           0.281          -0.164           0.946       1.427e-02         -0.2376
1000       1.758e+01       3.114e+01       2.698e+00           0.483          -0.208           0.851       5.361e-03         -0.0717










